# Name:		DB01809
# Created and modified by SHAFTS on Sun Nov 24 10:54:01 2013

# 

@<TRIPOS>MOLECULE
DB01809
   40    42     0
SMALL
USER_CHARGE


@<TRIPOS>ATOM
      1 C1          0.1663    1.2884   -0.7596 C.ar      1 <1>        -0.0525
      2 C2          1.0781    2.9017    0.7904 C.ar      1 <1>        -0.0525
      3 C3         -1.0618    1.9489   -0.7247 C.ar      1 <1>        -0.0586
      4 C4         -0.1500    3.5623    0.8254 C.ar      1 <1>        -0.0586
      5 C5          5.9530    1.1002   -2.0877 C.ar      1 <1>         0.1195
      6 C6          3.5796    1.3185   -0.9167 C.ar      1 <1>         0.0844
      7 C7          1.2362    1.7648   -0.0020 C.ar      1 <1>         0.0026
      8 C8         -1.2199    3.0858    0.0679 C.ar      1 <1>        -0.0511
      9 C9          2.5051    1.0825   -0.0391 C.2       1 <1>         0.1030
     10 C10         4.5415    0.4011   -0.5315 C.ar      1 <1>         0.1550
     11 C11         3.8975    2.1601   -1.9774 C.ar      1 <1>         0.1297
     12 C12        -2.5329    3.7920    0.1035 C.3       1 <1>        -0.0398
     13 C13         6.0617   -1.6625    0.7178 C.3       1 <1>        -0.0421
     14 C14         3.7929   -2.6810    1.1590 C.3       1 <1>        -0.0421
     15 C15         4.8058   -1.1021    2.7870 C.3       1 <1>        -0.0421
     16 C16         4.6454   -1.3978    1.2751 C.3       1 <1>         0.0499
     17 N1          5.7584    0.2313   -1.0722 N.ar      1 <1>        -0.2188
     18 N2          5.1098    2.0438   -2.5703 N.ar      1 <1>        -0.2211
     19 N3          2.7566    0.0996    0.8326 N.2       1 <1>        -0.1781
     20 N4          4.0019   -0.2954    0.5086 N.pl3     1 <1>        -0.2013
     21 N5          2.9856    3.1246   -2.4431 N.pl3     1 <1>        -0.3425
     22 H1          0.2729    0.4030   -1.3820 H         1 <1>         0.0630
     23 H2          1.9027    3.2856    1.3867 H         1 <1>         0.0630
     24 H3         -1.8901    1.5715   -1.3185 H         1 <1>         0.0625
     25 H4         -0.2650    4.4475    1.4453 H         1 <1>         0.0625
     26 H5          6.9142    1.0322   -2.5861 H         1 <1>         0.1063
     27 H6         -3.1655    3.3824    0.9006 H         1 <1>         0.0280
     28 H7         -2.4025    4.8673    0.2808 H         1 <1>         0.0280
     29 H8         -3.0663    3.6901   -0.8508 H         1 <1>         0.0280
     30 H9          6.6883   -0.7659    0.7885 H         1 <1>         0.0253
     31 H10         6.5804   -2.4582    1.2632 H         1 <1>         0.0253
     32 H11         6.0194   -1.9598   -0.3365 H         1 <1>         0.0253
     33 H12         2.7770   -2.5407    1.5433 H         1 <1>         0.0253
     34 H13         3.6978   -2.9995    0.1145 H         1 <1>         0.0253
     35 H14         4.2465   -3.5058    1.7211 H         1 <1>         0.0253
     36 H15         3.8339   -0.9028    3.2546 H         1 <1>         0.0253
     37 H16         5.2487   -1.9514    3.3201 H         1 <1>         0.0253
     38 H17         5.4321   -0.2196    2.9616 H         1 <1>         0.0253
     39 H18         2.0725    3.1760   -2.0342 H         1 <1>         0.1442
     40 H19         3.2256    3.6839   -3.2390 H         1 <1>         0.1442
@<TRIPOS>BOND
     1    1    3 ar
     2    1    7 ar
     3    2    4 ar
     4    2    7 ar
     5    3    8 ar
     6    4    8 ar
     7    5   17 ar
     8    5   18 ar
     9    6    9 1
    10    6   10 ar
    11    6   11 ar
    12    7    9 1
    13    8   12 1
    14    9   19 2
    15   10   17 ar
    16   10   20 1
    17   11   18 ar
    18   11   21 1
    19   13   16 1
    20   14   16 1
    21   15   16 1
    22   16   20 1
    23   19   20 1
    24    1   22 1
    25    2   23 1
    26    3   24 1
    27    4   25 1
    28    5   26 1
    29   12   27 1
    30   12   28 1
    31   12   29 1
    32   13   30 1
    33   13   31 1
    34   13   32 1
    35   14   33 1
    36   14   34 1
    37   14   35 1
    38   15   36 1
    39   15   37 1
    40   15   38 1
    41   21   39 1
    42   21   40 1
@<TRIPOS>Similarity
1.6150
@<TRIPOS>ShapeSim
0.8762
@<TRIPOS>PharmSim
0.7388
# END
# Name:		DB03023
# Created and modified by SHAFTS on Sun Nov 24 10:54:01 2013

# 

@<TRIPOS>MOLECULE
DB03023
   38    40     0
SMALL
USER_CHARGE


@<TRIPOS>ATOM
      1 C1          0.1137    1.3282   -0.7711 C.ar      1 <1>        -0.0515
      2 C2          1.0263    2.9379    0.7824 C.ar      1 <1>        -0.0515
      3 C3         -1.1073    2.0022   -0.7522 C.ar      1 <1>        -0.0429
      4 C4         -0.1948    3.6119    0.8013 C.ar      1 <1>        -0.0429
      5 C5          5.9591    1.0815   -2.0697 C.ar      1 <1>         0.1195
      6 C6          3.5730    1.2985   -0.8931 C.ar      1 <1>         0.0794
      7 C7          1.1805    1.7960   -0.0038 C.ar      1 <1>        -0.0020
      8 C8         -1.2616    3.1441    0.0339 C.ar      1 <1>         0.0406
      9 C9          2.4382    1.1021   -0.0234 C.2       1 <1>         0.0652
     10 C10         4.5622    0.3643   -0.5058 C.ar      1 <1>         0.1513
     11 C11         3.8993    2.1381   -1.9549 C.ar      1 <1>         0.1294
     12 C12         6.1149   -1.6564    0.6695 C.3       1 <1>        -0.0424
     13 C13         3.8771   -2.7255    1.1478 C.3       1 <1>        -0.0424
     14 C14         4.8966   -1.1495    2.7745 C.3       1 <1>        -0.0424
     15 C15         4.7070   -1.4274    1.2627 C.3       1 <1>         0.0458
     16 N1          5.7762    0.2082   -1.0570 N.ar      1 <1>        -0.2191
     17 N2          5.1112    2.0231   -2.5476 N.ar      1 <1>        -0.2211
     18 N3          4.0456   -0.3611    0.5494 N.pl3     1 <1>        -0.2315
     19 N4          2.7021    0.0869    0.8740 N.pl3     1 <1>        -0.2618
     20 N5          2.9902    3.1036   -2.4241 N.pl3     1 <1>        -0.3425
     21 Cl1        -2.7681    3.9756    0.0588 Cl        1 <1>        -0.0843
     22 H1          0.2172    0.4395   -1.3896 H         1 <1>         0.0630
     23 H2          1.8485    3.3149    1.3861 H         1 <1>         0.0630
     24 H3         -1.9300    1.6263   -1.3551 H         1 <1>         0.0638
     25 H4         -0.3007    4.4995    1.4195 H         1 <1>         0.0638
     26 H5          6.9196    1.0224   -2.5710 H         1 <1>         0.1063
     27 H6          6.7255   -0.7486    0.7387 H         1 <1>         0.0253
     28 H7          6.6613   -2.4491    1.1915 H         1 <1>         0.0253
     29 H8          6.0541   -1.9399   -0.3877 H         1 <1>         0.0253
     30 H9          2.8678   -2.6106    1.5570 H         1 <1>         0.0253
     31 H10         3.7642   -3.0314    0.1013 H         1 <1>         0.0253
     32 H11         4.3594   -3.5488    1.6875 H         1 <1>         0.0253
     33 H12         3.9321   -0.9759    3.2669 H         1 <1>         0.0253
     34 H13         5.3680   -1.9972    3.2852 H         1 <1>         0.0253
     35 H14         5.5095   -0.2573    2.9474 H         1 <1>         0.0253
     36 H15         2.1647   -0.3331    1.6258 H         1 <1>         0.1712
     37 H16         2.0760    3.1564   -2.0178 H         1 <1>         0.1442
     38 H17         3.2334    3.6619   -3.2196 H         1 <1>         0.1442
@<TRIPOS>BOND
     1    1    3 ar
     2    1    7 ar
     3    2    4 ar
     4    2    7 ar
     5    3    8 ar
     6    4    8 ar
     7    5   16 ar
     8    5   17 ar
     9    6    9 1
    10    6   10 ar
    11    6   11 ar
    12    7    9 1
    13    8   21 1
    14    9   19 2
    15   10   16 ar
    16   10   18 1
    17   11   17 ar
    18   11   20 1
    19   12   15 1
    20   13   15 1
    21   14   15 1
    22   15   18 1
    23   18   19 1
    24    1   22 1
    25    2   23 1
    26    3   24 1
    27    4   25 1
    28    5   26 1
    29   12   27 1
    30   12   28 1
    31   12   29 1
    32   13   30 1
    33   13   31 1
    34   13   32 1
    35   14   33 1
    36   14   34 1
    37   14   35 1
    38   19   36 1
    39   20   37 1
    40   20   38 1
@<TRIPOS>Similarity
1.5719
@<TRIPOS>ShapeSim
0.8777
@<TRIPOS>PharmSim
0.6942
# END
# Name:		DB08053
# Created and modified by SHAFTS on Sun Nov 24 10:54:01 2013

# 

@<TRIPOS>MOLECULE
DB08053
   43    46     0
SMALL
USER_CHARGE


@<TRIPOS>ATOM
      1 C1         -0.0581    1.3135   -0.1356 C.ar      1 <1>        -0.0499
      2 C2         -1.2424    2.0497   -0.1000 C.ar      1 <1>        -0.0284
      3 C3          1.2111    3.3380    0.2223 C.ar      1 <1>        -0.0196
      4 C4          5.8080    0.9549   -2.0973 C.ar      1 <1>         0.1195
      5 C5          3.4678    1.3463   -0.9048 C.ar      1 <1>         0.0844
      6 C6          1.1687    1.9577    0.0257 C.ar      1 <1>         0.0054
      7 C7         -1.1999    3.4299    0.0968 C.ar      1 <1>         0.1048
      8 C8          0.0268    4.0741    0.2579 C.ar      1 <1>         0.1054
      9 C9          2.3919    1.1969   -0.0100 C.2       1 <1>         0.1031
     10 C10         4.3756    0.3793   -0.5099 C.ar      1 <1>         0.1547
     11 C11         3.8237    2.1432   -1.9878 C.ar      1 <1>         0.1297
     12 C12         6.2204   -2.5045    1.2579 C.3       1 <1>        -0.0496
     13 C13         4.9853   -2.4451    0.3348 C.3       1 <1>        -0.0324
     14 C14         5.8942   -1.0511    1.6602 C.3       1 <1>        -0.0324
     15 C15         4.4314   -1.3536    1.2742 C.3       1 <1>         0.0474
     16 C16        -2.9898    4.2992    1.3991 C.3       1 <1>         0.0424
     17 C17         0.1784    6.2395   -0.7135 C.3       1 <1>         0.0424
     18 N1          5.5728    0.1222   -1.0603 N.ar      1 <1>        -0.2189
     19 N2          5.0190    1.9386   -2.5915 N.ar      1 <1>        -0.2211
     20 N3          2.5930    0.2194    0.8807 N.2       1 <1>        -0.1783
     21 N4          3.8071   -0.2595    0.5517 N.pl3     1 <1>        -0.2035
     22 N5          2.9689    3.1536   -2.4635 N.pl3     1 <1>        -0.3425
     23 O1         -2.3633    4.1378    0.1280 O.3       1 <1>        -0.3466
     24 O2          0.0807    5.4216    0.4508 O.3       1 <1>        -0.3465
     25 H1         -0.1077    0.2381   -0.2891 H         1 <1>         0.0631
     26 H2         -2.1949    1.5414   -0.2254 H         1 <1>         0.0651
     27 H3          2.1630    3.8495    0.3496 H         1 <1>         0.0658
     28 H4          6.7572    0.8182   -2.6043 H         1 <1>         0.1063
     29 H5          6.1368   -3.2285    2.0767 H         1 <1>         0.0268
     30 H6          7.1799   -2.6525    0.7555 H         1 <1>         0.0268
     31 H7          5.2071   -2.0818   -0.6759 H         1 <1>         0.0286
     32 H8          4.4094   -3.3712    0.2547 H         1 <1>         0.0286
     33 H9          6.0894   -0.7939    2.7050 H         1 <1>         0.0286
     34 H10         6.3697   -0.2987    1.0195 H         1 <1>         0.0286
     35 H11         3.7947   -1.7119    2.0877 H         1 <1>         0.0527
     36 H12        -3.9069    4.8820    1.2827 H         1 <1>         0.0535
     37 H13        -2.3054    4.8095    2.0815 H         1 <1>         0.0535
     38 H14        -3.2357    3.3139    1.8020 H         1 <1>         0.0535
     39 H15         0.2131    7.2913   -0.4189 H         1 <1>         0.0535
     40 H16        -0.6843    6.0595   -1.3599 H         1 <1>         0.0535
     41 H17         1.0941    5.9838   -1.2517 H         1 <1>         0.0535
     42 H18         2.0665    3.2719   -2.0446 H         1 <1>         0.1442
     43 H19         3.2329    3.6793   -3.2746 H         1 <1>         0.1442
@<TRIPOS>BOND
     1    1    2 ar
     2    1    6 ar
     3    2    7 ar
     4    3    6 ar
     5    3    8 ar
     6    4   18 ar
     7    4   19 ar
     8    5    9 1
     9    5   10 ar
    10    5   11 ar
    11    6    9 1
    12    7    8 ar
    13    7   23 1
    14    8   24 1
    15    9   20 2
    16   10   18 ar
    17   10   21 1
    18   11   19 ar
    19   11   22 1
    20   12   13 1
    21   12   14 1
    22   13   15 1
    23   14   15 1
    24   15   21 1
    25   16   23 1
    26   17   24 1
    27   20   21 1
    28    1   25 1
    29    2   26 1
    30    3   27 1
    31    4   28 1
    32   12   29 1
    33   12   30 1
    34   13   31 1
    35   13   32 1
    36   14   33 1
    37   14   34 1
    38   15   35 1
    39   16   36 1
    40   16   37 1
    41   16   38 1
    42   17   39 1
    43   17   40 1
    44   17   41 1
    45   22   42 1
    46   22   43 1
@<TRIPOS>Similarity
1.5332
@<TRIPOS>ShapeSim
0.8824
@<TRIPOS>PharmSim
0.6508
# END
# Name:		DB07335
# Created and modified by SHAFTS on Sun Nov 24 10:54:01 2013

# 

@<TRIPOS>MOLECULE
DB07335
   35    37     0
SMALL
USER_CHARGE


@<TRIPOS>ATOM
      1 C1         -1.1741    1.7099   -0.1576 C.ar      1 <1>        -0.0590
      2 C2          0.0540    1.0495   -0.1927 C.ar      1 <1>        -0.0525
      3 C3         -1.2200    3.0857    0.0679 C.ar      1 <1>        -0.0320
      4 C4          1.1903    3.1407    0.2236 C.ar      1 <1>        -0.0226
      5 C5          5.9529    1.1000   -2.0877 C.ar      1 <1>         0.1195
      6 C6          3.5797    1.3185   -0.9167 C.ar      1 <1>         0.0844
      7 C7          1.2362    1.7650   -0.0020 C.ar      1 <1>         0.0052
      8 C8         -0.0379    3.8011    0.2585 C.ar      1 <1>         0.0720
      9 C9          2.5051    1.0825   -0.0391 C.2       1 <1>         0.1031
     10 C10         4.5415    0.4011   -0.5316 C.ar      1 <1>         0.1547
     11 C11         3.8974    2.1601   -1.9775 C.ar      1 <1>         0.1297
     12 C12         5.8761   -0.8906    1.9954 C.3       1 <1>        -0.0447
     13 C13         4.9207   -2.5788    0.3695 C.3       1 <1>        -0.0447
     14 C14         4.6257   -1.3643    1.2519 C.3       1 <1>         0.0417
     15 N1          5.7583    0.2312   -1.0723 N.ar      1 <1>        -0.2189
     16 N2          5.1098    2.0437   -2.5704 N.ar      1 <1>        -0.2211
     17 N3          2.7566    0.0997    0.8326 N.2       1 <1>        -0.1784
     18 N4          4.0018   -0.2954    0.5087 N.pl3     1 <1>        -0.2041
     19 N5          2.9856    3.1246   -2.4432 N.pl3     1 <1>        -0.3425
     20 O1         -0.0836    5.1433    0.4802 O.3       1 <1>        -0.3609
     21 H1         -2.0949    1.1531   -0.3059 H         1 <1>         0.0624
     22 H2          0.0727   -0.0234   -0.3698 H         1 <1>         0.0630
     23 H3         -2.1797    3.5950    0.0946 H         1 <1>         0.0650
     24 H4          2.1068    3.7079    0.3723 H         1 <1>         0.0657
     25 H5          6.9141    1.0320   -2.5863 H         1 <1>         0.1063
     26 H6          6.6574   -0.5519    1.3067 H         1 <1>         0.0250
     27 H7          6.2944   -1.7022    2.6002 H         1 <1>         0.0250
     28 H8          5.6390   -0.0576    2.6667 H         1 <1>         0.0250
     29 H9          5.6442   -2.3258   -0.4135 H         1 <1>         0.0250
     30 H10         4.0056   -2.9310   -0.1182 H         1 <1>         0.0250
     31 H11         5.3326   -3.4132    0.9470 H         1 <1>         0.0250
     32 H12         3.8992   -1.6836    2.0102 H         1 <1>         0.0521
     33 H13         2.0726    3.1760   -2.0343 H         1 <1>         0.1442
     34 H14         3.2256    3.6838   -3.2391 H         1 <1>         0.1442
     35 H15         0.8132    5.4963    0.5931 H         1 <1>         0.2182
@<TRIPOS>BOND
     1    1    2 ar
     2    1    3 ar
     3    2    7 ar
     4    3    8 ar
     5    4    7 ar
     6    4    8 ar
     7    5   15 ar
     8    5   16 ar
     9    6    9 1
    10    6   10 ar
    11    6   11 ar
    12    7    9 1
    13    8   20 1
    14    9   17 2
    15   10   15 ar
    16   10   18 1
    17   11   16 ar
    18   11   19 1
    19   12   14 1
    20   13   14 1
    21   14   18 1
    22   17   18 1
    23    1   21 1
    24    2   22 1
    25    3   23 1
    26    4   24 1
    27    5   25 1
    28   12   26 1
    29   12   27 1
    30   12   28 1
    31   13   29 1
    32   13   30 1
    33   13   31 1
    34   14   32 1
    35   19   33 1
    36   19   34 1
    37   20   35 1
@<TRIPOS>Similarity
1.5208
@<TRIPOS>ShapeSim
0.8783
@<TRIPOS>PharmSim
0.6425
# END
# Name:		DB04463
# Created and modified by SHAFTS on Sun Nov 24 10:54:01 2013

# 

@<TRIPOS>MOLECULE
DB04463
   38    40     0
SMALL
USER_CHARGE


@<TRIPOS>ATOM
      1 C1         -0.1368    3.4224    0.9621 C.ar      1 <1>        -0.0590
      2 C2          1.1104    2.8047    0.8709 C.ar      1 <1>        -0.0525
      3 C3         -1.2165    2.9248    0.2324 C.ar      1 <1>        -0.0320
      4 C4          0.1984    1.1919   -0.6795 C.ar      1 <1>        -0.0226
      5 C5          5.9400    1.2230   -2.2057 C.ar      1 <1>         0.1195
      6 C6          3.6022    1.3394   -0.9515 C.ar      1 <1>         0.0844
      7 C7          1.2781    1.6895    0.0501 C.ar      1 <1>         0.0052
      8 C8         -1.0489    1.8096   -0.5883 C.ar      1 <1>         0.0720
      9 C9          2.5667    1.0509   -0.0432 C.2       1 <1>         0.1031
     10 C10         4.6064    0.4477   -0.6173 C.ar      1 <1>         0.1550
     11 C11         3.8557    2.2111   -2.0053 C.ar      1 <1>         0.1297
     12 C12         6.1317   -0.8352    1.7794 C.3       1 <1>        -0.0421
     13 C13         5.1698   -2.5220    0.1640 C.3       1 <1>        -0.0421
     14 C14         4.0048   -2.0103    2.2971 C.3       1 <1>        -0.0421
     15 C15         4.8312   -1.3805    1.1485 C.3       1 <1>         0.0499
     16 N1          5.8090    0.3291   -1.2018 N.ar      1 <1>        -0.2188
     17 N2          5.0502    2.1467   -2.6407 N.ar      1 <1>        -0.2211
     18 N3          2.8801    0.0608    0.7997 N.2       1 <1>        -0.1781
     19 N4          4.1259   -0.2861    0.4263 N.pl3     1 <1>        -0.2013
     20 N5          2.8971    3.1531   -2.4207 N.pl3     1 <1>        -0.3425
     21 O1         -2.1026    1.3256   -1.3012 O.3       1 <1>        -0.3609
     22 H1         -0.2676    4.2911    1.6010 H         1 <1>         0.0624
     23 H2          1.9421    3.2049    1.4464 H         1 <1>         0.0630
     24 H3         -2.1860    3.4103    0.3069 H         1 <1>         0.0650
     25 H4          0.3185    0.3218   -1.3216 H         1 <1>         0.0657
     26 H5          6.8852    1.1967   -2.7374 H         1 <1>         0.1063
     27 H6          5.9190   -0.0224    2.4834 H         1 <1>         0.0253
     28 H7          6.6775   -1.6047    2.3356 H         1 <1>         0.0253
     29 H8          6.8072   -0.4439    1.0097 H         1 <1>         0.0253
     30 H9          4.2757   -2.9410   -0.3093 H         1 <1>         0.0253
     31 H10         5.8217   -2.1678   -0.6430 H         1 <1>         0.0253
     32 H11         5.6861   -3.3421    0.6764 H         1 <1>         0.0253
     33 H12         3.0598   -2.4219    1.9225 H         1 <1>         0.0253
     34 H13         4.5440   -2.8348    2.7779 H         1 <1>         0.0253
     35 H14         3.7500   -1.2700    3.0642 H         1 <1>         0.0253
     36 H15         1.9975    3.1661   -1.9803 H         1 <1>         0.1442
     37 H16         3.0912    3.7350   -3.2128 H         1 <1>         0.1442
     38 H17        -1.8304    0.5524   -1.8208 H         1 <1>         0.2182
@<TRIPOS>BOND
     1    1    2 ar
     2    1    3 ar
     3    2    7 ar
     4    3    8 ar
     5    4    7 ar
     6    4    8 ar
     7    5   16 ar
     8    5   17 ar
     9    6    9 1
    10    6   10 ar
    11    6   11 ar
    12    7    9 1
    13    8   21 1
    14    9   18 2
    15   10   16 ar
    16   10   19 1
    17   11   17 ar
    18   11   20 1
    19   12   15 1
    20   13   15 1
    21   14   15 1
    22   15   19 1
    23   18   19 1
    24    1   22 1
    25    2   23 1
    26    3   24 1
    27    4   25 1
    28    5   26 1
    29   12   27 1
    30   12   28 1
    31   12   29 1
    32   13   30 1
    33   13   31 1
    34   13   32 1
    35   14   33 1
    36   14   34 1
    37   14   35 1
    38   20   36 1
    39   20   37 1
    40   21   38 1
@<TRIPOS>Similarity
1.4880
@<TRIPOS>ShapeSim
0.8553
@<TRIPOS>PharmSim
0.6327
# END
# Name:		DB08054
# Created and modified by SHAFTS on Sun Nov 24 10:54:01 2013

# 

@<TRIPOS>MOLECULE
DB08054
   39    42     0
SMALL
USER_CHARGE


@<TRIPOS>ATOM
      1 C1         -1.3609    5.8140    0.5162 C.ar      1 <1>        -0.0432
      2 C2         -0.1256    5.1829    0.4855 C.ar      1 <1>        -0.0513
      3 C3          0.0620    1.0525   -0.1924 C.ar      1 <1>        -0.0505
      4 C4         -1.1661    1.7175   -0.1557 C.ar      1 <1>        -0.0351
      5 C5          1.1905    3.1334    0.2231 C.ar      1 <1>        -0.0433
      6 C6         -2.4814    5.0330    0.3182 C.ar      1 <1>         0.0275
      7 C7          5.9544    1.1010   -2.0875 C.ar      1 <1>         0.1195
      8 C8         -0.0449    3.8022    0.2600 C.ar      1 <1>         0.0008
      9 C9          3.5808    1.3183   -0.9170 C.ar      1 <1>         0.0844
     10 C10         1.2419    1.7609   -0.0028 C.ar      1 <1>         0.0034
     11 C11        -1.2469    3.0892    0.0685 C.ar      1 <1>         0.0702
     12 C12         2.5062    1.0817   -0.0396 C.2       1 <1>         0.1030
     13 C13         4.5429    0.4013   -0.5317 C.ar      1 <1>         0.1547
     14 C14         3.8985    2.1601   -1.9775 C.ar      1 <1>         0.1297
     15 C15         5.8777   -0.8903    1.9954 C.3       1 <1>        -0.0447
     16 C16         4.9234   -2.5786    0.3690 C.3       1 <1>        -0.0447
     17 C17         4.6276   -1.3644    1.2514 C.3       1 <1>         0.0417
     18 N1         -2.4470    3.6989    0.0977 N.ar      1 <1>        -0.2562
     19 N2          5.7600    0.2319   -1.0722 N.ar      1 <1>        -0.2189
     20 N3          5.1110    2.0443   -2.5702 N.ar      1 <1>        -0.2211
     21 N4          2.7579    0.0988    0.8319 N.2       1 <1>        -0.1784
     22 N5          4.0034   -0.2956    0.5083 N.pl3     1 <1>        -0.2041
     23 N6          2.9863    3.1243   -2.4433 N.pl3     1 <1>        -0.3425
     24 H1         -1.4423    6.8807    0.6885 H         1 <1>         0.0639
     25 H2          0.7744    5.7744    0.6373 H         1 <1>         0.0630
     26 H3          0.0756   -0.0204   -0.3693 H         1 <1>         0.0630
     27 H4         -2.0767    1.1403   -0.3057 H         1 <1>         0.0646
     28 H5          2.1126    3.6937    0.3715 H         1 <1>         0.0637
     29 H6         -3.4739    5.4714    0.3314 H         1 <1>         0.0840
     30 H7          6.9157    1.0334   -2.5858 H         1 <1>         0.1063
     31 H8          6.6590   -0.5512    1.3068 H         1 <1>         0.0250
     32 H9          6.2962   -1.7018    2.6001 H         1 <1>         0.0250
     33 H10         5.6401   -0.0575    2.6666 H         1 <1>         0.0250
     34 H11         5.6468   -2.3253   -0.4138 H         1 <1>         0.0250
     35 H12         4.0084   -2.9312   -0.1190 H         1 <1>         0.0250
     36 H13         5.3354   -3.4130    0.9464 H         1 <1>         0.0250
     37 H14         3.9011   -1.6841    2.0097 H         1 <1>         0.0521
     38 H15         2.0732    3.1753   -2.0345 H         1 <1>         0.1442
     39 H16         3.2263    3.6838   -3.2391 H         1 <1>         0.1442
@<TRIPOS>BOND
     1    1    2 ar
     2    1    6 ar
     3    2    8 ar
     4    3    4 ar
     5    3   10 ar
     6    4   11 ar
     7    5    8 ar
     8    5   10 ar
     9    6   18 ar
    10    7   19 ar
    11    7   20 ar
    12    8   11 ar
    13    9   12 1
    14    9   13 ar
    15    9   14 ar
    16   10   12 1
    17   11   18 ar
    18   12   21 2
    19   13   19 ar
    20   13   22 1
    21   14   20 ar
    22   14   23 1
    23   15   17 1
    24   16   17 1
    25   17   22 1
    26   21   22 1
    27    1   24 1
    28    2   25 1
    29    3   26 1
    30    4   27 1
    31    5   28 1
    32    6   29 1
    33    7   30 1
    34   15   31 1
    35   15   32 1
    36   15   33 1
    37   16   34 1
    38   16   35 1
    39   16   36 1
    40   17   37 1
    41   23   38 1
    42   23   39 1
@<TRIPOS>Similarity
1.4814
@<TRIPOS>ShapeSim
0.8615
@<TRIPOS>PharmSim
0.6199
# END
# Name:		DB08052
# Created and modified by SHAFTS on Sun Nov 24 10:54:01 2013

# 

@<TRIPOS>MOLECULE
DB08052
   41    45     0
SMALL
USER_CHARGE


@<TRIPOS>ATOM
      1 C1         -0.6921    4.8718    1.1582 C.2       1 <1>        -0.0375
      2 C2          1.0557    2.9719    0.7322 C.ar      1 <1>        -0.0403
      3 C3          0.1445    1.3760   -0.8021 C.ar      1 <1>         0.0386
      4 C4         -1.9592    5.0315    0.6399 C.2       1 <1>        -0.0051
      5 C5          5.9782    0.7190   -1.7195 C.ar      1 <1>         0.1195
      6 C6         -0.1531    3.6765    0.6130 C.ar      1 <1>         0.0169
      7 C7          3.5529    1.1510   -0.7280 C.ar      1 <1>         0.0844
      8 C8          1.1968    1.7934    0.0016 C.ar      1 <1>         0.0217
      9 C9          2.4073    1.0279    0.0801 C.2       1 <1>         0.1045
     10 C10        -1.1246    3.1436   -0.2292 C.ar      1 <1>         0.1285
     11 C11         4.4181    0.1871   -0.2410 C.ar      1 <1>         0.1547
     12 C12         4.0013    1.9220   -1.7952 C.ar      1 <1>         0.1297
     13 C13         6.6354   -2.0047    1.7994 C.3       1 <1>        -0.0514
     14 C14         5.8951   -3.2682    1.3959 C.3       1 <1>        -0.0514
     15 C15         5.5405   -1.1062    2.3635 C.3       1 <1>        -0.0324
     16 C16         4.6146   -2.7372    0.7685 C.3       1 <1>        -0.0324
     17 C17         4.2547   -1.5012    1.6104 C.3       1 <1>         0.0474
     18 N1         -1.0398    2.0127   -0.9551 N.ar      1 <1>        -0.2399
     19 N2          5.6535   -0.0896   -0.6875 N.ar      1 <1>        -0.2189
     20 N3          5.2397    1.6968   -2.2962 N.ar      1 <1>        -0.2211
     21 N4          2.5281    0.0686    1.0044 N.2       1 <1>        -0.1783
     22 N5         -2.2112    3.9776   -0.1998 N.pl3     1 <1>        -0.3055
     23 N6          3.7608   -0.4250    0.7845 N.pl3     1 <1>        -0.2035
     24 N7          3.1948    2.9261   -2.3608 N.pl3     1 <1>        -0.3425
     25 H1         -0.2104    5.5451    1.8536 H         1 <1>         0.0643
     26 H2          1.8491    3.3402    1.3763 H         1 <1>         0.0638
     27 H3          0.2233    0.4606   -1.3853 H         1 <1>         0.0847
     28 H4         -2.7031    5.8002    0.7948 H         1 <1>         0.0790
     29 H5          6.9636    0.5634   -2.1458 H         1 <1>         0.1063
     30 H6          7.4280   -2.2003    2.5274 H         1 <1>         0.0267
     31 H7          7.0886   -1.5350    0.9184 H         1 <1>         0.0267
     32 H8          6.4719   -3.8853    0.7011 H         1 <1>         0.0267
     33 H9          5.6617   -3.8726    2.2805 H         1 <1>         0.0267
     34 H10         5.4113   -1.3246    3.4308 H         1 <1>         0.0286
     35 H11         5.7997   -0.0463    2.2714 H         1 <1>         0.0286
     36 H12         4.7968   -2.4679   -0.2797 H         1 <1>         0.0286
     37 H13         3.8157   -3.4854    0.7824 H         1 <1>         0.0286
     38 H14         3.4514   -1.7260    2.3199 H         1 <1>         0.0527
     39 H15        -3.0676    3.8370   -0.7175 H         1 <1>         0.1537
     40 H16         2.2622    3.0579   -2.0195 H         1 <1>         0.1442
     41 H17         3.5276    3.4324   -3.1586 H         1 <1>         0.1442
@<TRIPOS>BOND
     1    1    4 2
     2    1    6 1
     3    2    6 ar
     4    2    8 ar
     5    3    8 ar
     6    3   18 ar
     7    4   22 1
     8    5   19 ar
     9    5   20 ar
    10    6   10 ar
    11    7    9 1
    12    7   11 ar
    13    7   12 ar
    14    8    9 1
    15    9   21 2
    16   10   18 ar
    17   10   22 1
    18   11   19 ar
    19   11   23 1
    20   12   20 ar
    21   12   24 1
    22   13   14 1
    23   13   15 1
    24   14   16 1
    25   15   17 1
    26   16   17 1
    27   17   23 1
    28   21   23 1
    29    1   25 1
    30    2   26 1
    31    3   27 1
    32    4   28 1
    33    5   29 1
    34   13   30 1
    35   13   31 1
    36   14   32 1
    37   14   33 1
    38   15   34 1
    39   15   35 1
    40   16   36 1
    41   16   37 1
    42   17   38 1
    43   22   39 1
    44   24   40 1
    45   24   41 1
@<TRIPOS>Similarity
1.4436
@<TRIPOS>ShapeSim
0.8738
@<TRIPOS>PharmSim
0.5698
# END
# Name:		DB08699
# Created and modified by SHAFTS on Sun Nov 24 10:54:01 2013

# 

@<TRIPOS>MOLECULE
DB08699
   43    45     0
SMALL
USER_CHARGE


@<TRIPOS>ATOM
      1 C1         -0.8485    0.7647   -0.7075 C.ar      1 <1>        -0.0617
      2 C2         -1.8741    1.7049   -0.6096 C.ar      1 <1>        -0.0593
      3 C3          0.4366    1.0863   -0.2707 C.ar      1 <1>        -0.0586
      4 C4         -0.3295    3.2886    0.3616 C.ar      1 <1>        -0.0557
      5 C5          5.3576    0.5929   -2.7758 C.ar      1 <1>         0.1195
      6 C6          3.7631    1.5526   -0.8814 C.ar      1 <1>         0.0799
      7 C7         -1.6146    2.9669   -0.0752 C.ar      1 <1>        -0.0508
      8 C8          0.6961    2.3482    0.2638 C.ar      1 <1>        -0.0417
      9 C9          3.1353    1.7199    0.3669 C.2       1 <1>         0.0775
     10 C10         4.6417    0.5022   -0.6824 C.ar      1 <1>         0.1546
     11 C11         3.7321    2.1190   -2.1513 C.ar      1 <1>         0.1294
     12 C12        -2.7121    3.9712    0.0305 C.3       1 <1>        -0.0398
     13 C13         6.7330   -0.6812    1.3029 C.3       1 <1>        -0.0421
     14 C14         4.9309   -2.3169    0.6271 C.3       1 <1>        -0.0421
     15 C15         4.8096   -1.1355    2.8086 C.3       1 <1>        -0.0421
     16 C16         2.0992    2.6994    0.7398 C.3       1 <1>         0.0173
     17 C17         5.2149   -0.9672    1.3232 C.3       1 <1>         0.0499
     18 N1          5.4754   -0.0362   -1.5864 N.ar      1 <1>        -0.2189
     19 N2          4.5481    1.6249   -3.1132 N.ar      1 <1>        -0.2211
     20 N3          3.5735    0.8523    1.2858 N.2       1 <1>        -0.1829
     21 N4          4.4886    0.1248    0.6185 N.pl3     1 <1>        -0.2016
     22 N5          2.8729    3.1924   -2.4472 N.pl3     1 <1>        -0.3425
     23 H1         -1.0507   -0.2181   -1.1236 H         1 <1>         0.0623
     24 H2         -2.8725    1.4452   -0.9520 H         1 <1>         0.0625
     25 H3          1.2298    0.3476   -0.3515 H         1 <1>         0.0625
     26 H4         -0.1268    4.2719    0.7793 H         1 <1>         0.0628
     27 H5          5.9975    0.2215   -3.5690 H         1 <1>         0.1063
     28 H6         -3.2233    3.8781    0.9964 H         1 <1>         0.0280
     29 H7         -2.3259    4.9947   -0.0616 H         1 <1>         0.0280
     30 H8         -3.4523    3.8381   -0.7693 H         1 <1>         0.0280
     31 H9          6.9621    0.2727    1.7916 H         1 <1>         0.0253
     32 H10         7.3078   -1.4535    1.8251 H         1 <1>         0.0253
     33 H11         7.1090   -0.6301    0.2744 H         1 <1>         0.0253
     34 H12         3.8637   -2.5625    0.6174 H         1 <1>         0.0253
     35 H13         5.2642   -2.3013   -0.4170 H         1 <1>         0.0253
     36 H14         5.4528   -3.1372    1.1335 H         1 <1>         0.0253
     37 H15         3.7367   -1.3425    2.9029 H         1 <1>         0.0253
     38 H16         5.3390   -1.9718    3.2796 H         1 <1>         0.0253
     39 H17         5.0127   -0.2274    3.3880 H         1 <1>         0.0253
     40 H18         2.3464    3.7137    0.3609 H         1 <1>         0.0383
     41 H19         2.0615    2.8490    1.8397 H         1 <1>         0.0383
     42 H20         2.2398    3.5237   -1.7448 H         1 <1>         0.1442
     43 H21         2.8370    3.5501   -3.3824 H         1 <1>         0.1442
@<TRIPOS>BOND
     1    1    2 ar
     2    1    3 ar
     3    2    7 ar
     4    3    8 ar
     5    4    7 ar
     6    4    8 ar
     7    5   18 ar
     8    5   19 ar
     9    6    9 1
    10    6   10 ar
    11    6   11 ar
    12    7   12 1
    13    8   16 1
    14    9   16 1
    15    9   20 2
    16   10   18 ar
    17   10   21 1
    18   11   19 ar
    19   11   22 1
    20   13   17 1
    21   14   17 1
    22   15   17 1
    23   17   21 1
    24   20   21 1
    25    1   23 1
    26    2   24 1
    27    3   25 1
    28    4   26 1
    29    5   27 1
    30   12   28 1
    31   12   29 1
    32   12   30 1
    33   13   31 1
    34   13   32 1
    35   13   33 1
    36   14   34 1
    37   14   35 1
    38   14   36 1
    39   15   37 1
    40   15   38 1
    41   15   39 1
    42   16   40 1
    43   16   41 1
    44   22   42 1
    45   22   43 1
@<TRIPOS>Similarity
1.4240
@<TRIPOS>ShapeSim
0.8061
@<TRIPOS>PharmSim
0.6179
# END
# Name:		DB08300
# Created and modified by SHAFTS on Sun Nov 24 10:54:01 2013

# 

@<TRIPOS>MOLECULE
DB08300
   34    37     0
SMALL
USER_CHARGE


@<TRIPOS>ATOM
      1 C1         -3.5443    3.2740   -0.6583 C.ar      1 <1>        -0.0616
      2 C2         -3.3886    2.1400   -1.4499 C.ar      1 <1>        -0.0616
      3 C3         -2.4732    3.7500    0.0985 C.ar      1 <1>        -0.0544
      4 C4         -2.1614    1.4776   -1.4878 C.ar      1 <1>        -0.0543
      5 C5         -0.1419    3.5608    0.8279 C.ar      1 <1>        -0.0537
      6 C6          1.0854    2.8983    0.7901 C.ar      1 <1>        -0.0521
      7 C7          0.1699    1.2882   -0.7583 C.ar      1 <1>        -0.0448
      8 C8          5.9520    1.0983   -2.0887 C.ar      1 <1>         0.1195
      9 C9         -1.2307    3.0957    0.0726 C.ar      1 <1>        -0.0183
     10 C10        -1.0725    1.9425   -0.7324 C.ar      1 <1>        -0.0177
     11 C11         3.5792    1.3186   -0.9168 C.ar      1 <1>         0.0844
     12 C12         1.2409    1.7642   -0.0015 C.ar      1 <1>         0.0033
     13 C13         2.5048    1.0834   -0.0387 C.2       1 <1>         0.1030
     14 C14         4.5406    0.4006   -0.5319 C.ar      1 <1>         0.1542
     15 C15         3.8972    2.1598   -1.9779 C.ar      1 <1>         0.1297
     16 C16         4.6245   -1.3646    1.2519 C.3       1 <1>         0.0250
     17 N1          5.7572    0.2298   -1.0730 N.ar      1 <1>        -0.2189
     18 N2          5.1093    2.0424   -2.5712 N.ar      1 <1>        -0.2211
     19 N3          2.7561    0.1005    0.8330 N.2       1 <1>        -0.1789
     20 N4          4.0010   -0.2954    0.5087 N.pl3     1 <1>        -0.2098
     21 N5          2.9858    3.1247   -2.4434 N.pl3     1 <1>        -0.3425
     22 H1         -4.5001    3.7891   -0.6295 H         1 <1>         0.0623
     23 H2         -4.2228    1.7701   -2.0390 H         1 <1>         0.0623
     24 H3         -2.6177    4.6381    0.7101 H         1 <1>         0.0629
     25 H4         -2.0630    0.5930   -2.1135 H         1 <1>         0.0629
     26 H5         -0.2409    4.4456    1.4533 H         1 <1>         0.0629
     27 H6          1.9107    3.2813    1.3859 H         1 <1>         0.0630
     28 H7          0.2985    0.4001   -1.3762 H         1 <1>         0.0636
     29 H8          6.9129    1.0296   -2.5876 H         1 <1>         0.1063
     30 H9          5.1634   -0.9209    2.0932 H         1 <1>         0.0454
     31 H10         3.8560   -2.0546    1.6112 H         1 <1>         0.0454
     32 H11         5.3137   -1.9054    0.5974 H         1 <1>         0.0454
     33 H12         2.0729    3.1768   -2.0342 H         1 <1>         0.1442
     34 H13         3.2259    3.6836   -3.2395 H         1 <1>         0.1442
@<TRIPOS>BOND
     1    1    2 ar
     2    1    3 ar
     3    2    4 ar
     4    3    9 ar
     5    4   10 ar
     6    5    6 ar
     7    5    9 ar
     8    6   12 ar
     9    7   10 ar
    10    7   12 ar
    11    8   17 ar
    12    8   18 ar
    13    9   10 ar
    14   11   13 1
    15   11   14 ar
    16   11   15 ar
    17   12   13 1
    18   13   19 2
    19   14   17 ar
    20   14   20 1
    21   15   18 ar
    22   15   21 1
    23   16   20 1
    24   19   20 1
    25    1   22 1
    26    2   23 1
    27    3   24 1
    28    4   25 1
    29    5   26 1
    30    6   27 1
    31    7   28 1
    32    8   29 1
    33   16   30 1
    34   16   31 1
    35   16   32 1
    36   21   33 1
    37   21   34 1
@<TRIPOS>Similarity
1.4191
@<TRIPOS>ShapeSim
0.7956
@<TRIPOS>PharmSim
0.6235
# END
# Name:		DB08470
# Created and modified by SHAFTS on Sun Nov 24 10:54:01 2013

# 

@<TRIPOS>MOLECULE
DB08470
   28    30     0
SMALL
USER_CHARGE


@<TRIPOS>ATOM
      1 C1         -1.1657    3.0581    0.0667 C.ar      1 <1>        -0.0622
      2 C2         -0.0199    3.7285   -0.3615 C.ar      1 <1>        -0.0615
      3 C3         -1.0855    1.7232    0.4633 C.ar      1 <1>        -0.0615
      4 C4          1.2061    3.0641   -0.3931 C.ar      1 <1>        -0.0514
      5 C5          0.1406    1.0587    0.4316 C.ar      1 <1>        -0.0514
      6 C6          5.7871   -2.1680    0.4622 C.ar      1 <1>        -0.0485
      7 C7          4.6047   -1.6610    2.5071 C.ar      1 <1>        -0.0485
      8 C8          6.4771   -3.1898    1.1145 C.ar      1 <1>        -0.0256
      9 C9          5.2947   -2.6827    3.1594 C.ar      1 <1>        -0.0256
     10 C10         1.2864    1.7291    0.0034 C.ar      1 <1>         0.0169
     11 C11         4.8509   -1.4036    1.1585 C.ar      1 <1>         0.0171
     12 C12         6.2310   -3.4471    2.4632 C.ar      1 <1>         0.1228
     13 C13         2.5543    1.0425   -0.0284 C.2       1 <1>         0.1530
     14 C14         4.1380   -0.3494    0.4851 C.2       1 <1>         0.1530
     15 N1          3.5570    1.2659   -0.8475 N.2       1 <1>        -0.1325
     16 N2          4.5647    0.3805   -0.5207 N.2       1 <1>        -0.1325
     17 N3          2.8767    0.0335    0.8276 N.pl3     1 <1>        -0.2803
     18 F1          6.8929   -4.4290    3.0895 F         1 <1>        -0.2069
     19 H1         -2.1202    3.5757    0.0919 H         1 <1>         0.0622
     20 H2         -0.0827    4.7679   -0.6705 H         1 <1>         0.0623
     21 H3         -1.9775    1.2014    0.7977 H         1 <1>         0.0623
     22 H4          2.0906    3.6013   -0.7268 H         1 <1>         0.0630
     23 H5          0.1863    0.0178    0.7430 H         1 <1>         0.0630
     24 H6          5.9909   -1.9797   -0.5894 H         1 <1>         0.0631
     25 H7          3.8774   -1.0743    3.0636 H         1 <1>         0.0631
     26 H8          7.2053   -3.7856    0.5722 H         1 <1>         0.0653
     27 H9          5.1032   -2.8831    4.2096 H         1 <1>         0.0653
     28 H10         2.2997   -0.3509    1.5656 H         1 <1>         0.1560
@<TRIPOS>BOND
     1    1    2 ar
     2    1    3 ar
     3    2    4 ar
     4    3    5 ar
     5    4   10 ar
     6    5   10 ar
     7    6    8 ar
     8    6   11 ar
     9    7    9 ar
    10    7   11 ar
    11    8   12 ar
    12    9   12 ar
    13   10   13 1
    14   11   14 1
    15   12   18 1
    16   13   15 2
    17   13   17 1
    18   14   16 2
    19   14   17 1
    20   15   16 1
    21    1   19 1
    22    2   20 1
    23    3   21 1
    24    4   22 1
    25    5   23 1
    26    6   24 1
    27    7   25 1
    28    8   26 1
    29    9   27 1
    30   17   28 1
@<TRIPOS>Similarity
1.3917
@<TRIPOS>ShapeSim
0.8584
@<TRIPOS>PharmSim
0.5333
# END
# Name:		DB08694
# Created and modified by SHAFTS on Sun Nov 24 10:54:01 2013

# 

@<TRIPOS>MOLECULE
DB08694
   33    36     0
SMALL
USER_CHARGE


@<TRIPOS>ATOM
      1 C1          5.0631    2.1517   -2.6555 C.ar      1 <1>        -0.0129
      2 C2          1.1564    3.1149    0.2531 C.ar      1 <1>        -0.0171
      3 C3          5.9850    1.2121   -2.2224 C.ar      1 <1>         0.0317
      4 C4         -0.1178    3.6425    0.2997 C.ar      1 <1>         0.0328
      5 C5          3.5923    1.3378   -0.9449 C.ar      1 <1>         0.0569
      6 C6          2.5091    1.1022   -0.0630 C.2       1 <1>         0.0358
      7 C7          3.8337    2.2246   -2.0077 C.ar      1 <1>         0.0843
      8 C8          1.2326    1.7588    0.0097 C.ar      1 <1>         0.0783
      9 C9          2.8802    0.0800    0.7804 C.2       1 <1>         0.0538
     10 C10         4.6041    0.4387   -0.6069 C.ar      1 <1>         0.1415
     11 C11        -1.0321    1.6013   -0.1066 C.ar      1 <1>         0.2114
     12 C12         2.2508   -0.5915    1.8483 C.2       1 <1>        -0.0209
     13 C13         2.9324   -1.5684    2.4620 C.2       1 <1>         0.0323
     14 C14         4.8166   -1.3736    1.1502 C.2       1 <1>         0.1884
     15 N1          5.8078    0.3363   -1.2086 N.ar      1 <1>        -0.2397
     16 N2         -1.2384    2.9120    0.1235 N.ar      1 <1>        -0.2238
     17 N3          0.1547    0.9687   -0.1755 N.ar      1 <1>        -0.2151
     18 N4          4.2044   -1.9770    2.1378 N.2       1 <1>        -0.2270
     19 N5          4.1599   -0.3317    0.4546 N.pl3     1 <1>        -0.2249
     20 N6         -2.1832    0.8054   -0.2949 N.pl3     1 <1>        -0.3273
     21 N7          6.0853   -1.7150    0.7574 N.pl3     1 <1>        -0.3303
     22 O1          2.9054    3.1430   -2.4151 O.3       1 <1>        -0.3600
     23 H1          5.2993    2.8143   -3.4820 H         1 <1>         0.0667
     24 H2          2.0303    3.7374    0.4001 H         1 <1>         0.0662
     25 H3          6.9519    1.1377   -2.7134 H         1 <1>         0.0841
     26 H4         -0.2779    4.6993    0.4844 H         1 <1>         0.0842
     27 H5          1.2478   -0.3258    2.1627 H         1 <1>         0.0659
     28 H6          2.4735   -2.1028    3.2874 H         1 <1>         0.0841
     29 H7         -3.0850    1.2259   -0.2044 H         1 <1>         0.1457
     30 H8         -2.0773   -0.1800   -0.4215 H         1 <1>         0.1457
     31 H9          6.5477   -2.4466    1.2451 H         1 <1>         0.1454
     32 H10         6.4932   -1.2175    0.0004 H         1 <1>         0.1454
     33 H11         3.2552    3.6585   -3.1563 H         1 <1>         0.2182
@<TRIPOS>BOND
     1    1    3 ar
     2    1    7 ar
     3    2    4 ar
     4    2    8 ar
     5    3   15 ar
     6    4   16 ar
     7    5    6 1
     8    5    7 ar
     9    5   10 ar
    10    6    8 1
    11    6    9 2
    12    7   22 1
    13    8   17 ar
    14    9   12 1
    15    9   19 1
    16   10   15 ar
    17   10   19 1
    18   11   16 ar
    19   11   17 ar
    20   11   20 1
    21   12   13 2
    22   13   18 1
    23   14   18 2
    24   14   19 1
    25   14   21 1
    26    1   23 1
    27    2   24 1
    28    3   25 1
    29    4   26 1
    30   12   27 1
    31   13   28 1
    32   20   29 1
    33   20   30 1
    34   21   31 1
    35   21   32 1
    36   22   33 1
@<TRIPOS>Similarity
1.3824
@<TRIPOS>ShapeSim
0.8480
@<TRIPOS>PharmSim
0.5344
# END
# Name:		DB06833
# Created and modified by SHAFTS on Sun Nov 24 10:54:01 2013

# 

@<TRIPOS>MOLECULE
DB06833
   54    57     0
SMALL
USER_CHARGE


@<TRIPOS>ATOM
      1 C1          4.9700    1.9826   -2.7566 C.ar      1 <1>        -0.0615
      2 C2          5.9508    1.0526   -2.4174 C.ar      1 <1>        -0.0603
      3 C3          3.7889    2.0819   -2.0123 C.ar      1 <1>        -0.0528
      4 C4          5.4060   -2.6419    3.1694 C.ar      1 <1>        -0.0574
      5 C5          6.4467   -3.2465    1.0745 C.ar      1 <1>        -0.0574
      6 C6          5.7838    0.1945   -1.3266 C.ar      1 <1>        -0.0396
      7 C7          4.7029   -1.6234    2.5262 C.ar      1 <1>        -0.0400
      8 C8          5.7435   -2.2278    0.4313 C.ar      1 <1>        -0.0400
      9 C9          2.9336    0.0499    0.9031 C.2       1 <1>         0.0032
     10 C10         3.5983    1.2273   -0.9084 C.ar      1 <1>        -0.0011
     11 C11         6.2780   -3.4535    2.4436 C.ar      1 <1>        -0.0510
     12 C12         2.5545    1.0548    0.0432 C.2       1 <1>        -0.0413
     13 C13         4.5981    0.3051   -0.5917 C.ar      1 <1>         0.0447
     14 C14         4.8716   -1.4164    1.1572 C.ar      1 <1>         0.0373
     15 C15        -3.5883    2.2271   -2.7588 C.3       1 <1>        -0.0533
     16 C16        -2.3052    1.4084   -2.8623 C.3       1 <1>        -0.0531
     17 C17        -3.4098    3.4370   -1.8470 C.3       1 <1>        -0.0531
     18 C18        -1.7847    1.0005   -1.4860 C.3       1 <1>        -0.0522
     19 C19        -2.8911    3.0324   -0.4690 C.3       1 <1>        -0.0522
     20 C20        -1.5954    2.2161   -0.5686 C.3       1 <1>        -0.0566
     21 C21         7.0297   -4.5425    3.1312 C.3       1 <1>        -0.0398
     22 C22         1.2683    1.8246    0.1074 C.3       1 <1>        -0.0655
     23 C23        -1.1259    1.7781    0.8174 C.3       1 <1>        -0.0904
     24 N1          4.1677   -0.3958    0.5122 N.pl3     1 <1>        -0.2757
     25 N2          0.1402    1.0314    0.6743 N.4       1 <1>         0.3836
     26 H1          5.1214    2.6395   -3.6092 H         1 <1>         0.0623
     27 H2          6.8610    0.9935   -3.0085 H         1 <1>         0.0623
     28 H3          3.0346    2.8130   -2.2888 H         1 <1>         0.0630
     29 H4          5.2689   -2.7966    4.2363 H         1 <1>         0.0626
     30 H5          7.1240   -3.8737    0.5011 H         1 <1>         0.0626
     31 H6          6.5523   -0.5270   -1.0694 H         1 <1>         0.0643
     32 H7          4.0270   -0.9974    3.1039 H         1 <1>         0.0643
     33 H8          5.8851   -2.0778   -0.6363 H         1 <1>         0.0643
     34 H9          2.4246   -0.3797    1.7568 H         1 <1>         0.0798
     35 H10        -3.8958    2.5597   -3.7566 H         1 <1>         0.0266
     36 H11        -4.3948    1.5931   -2.3700 H         1 <1>         0.0266
     37 H12        -2.4875    0.5136   -3.4679 H         1 <1>         0.0267
     38 H13        -1.5387    1.9958   -3.3830 H         1 <1>         0.0267
     39 H14        -2.7073    4.1414   -2.3094 H         1 <1>         0.0267
     40 H15        -4.3657    3.9625   -1.7413 H         1 <1>         0.0267
     41 H16        -2.4895    0.2938   -1.0290 H         1 <1>         0.0269
     42 H17        -0.8331    0.4682   -1.6029 H         1 <1>         0.0269
     43 H18        -2.7202    3.9340    0.1312 H         1 <1>         0.0269
     44 H19        -3.6618    2.4474    0.0490 H         1 <1>         0.0269
     45 H20        -0.8158    2.8572   -1.0014 H         1 <1>         0.0283
     46 H21         6.4527   -5.4752    3.1135 H         1 <1>         0.0280
     47 H22         7.9989   -4.7240    2.6485 H         1 <1>         0.0280
     48 H23         7.2396   -4.2829    4.1771 H         1 <1>         0.0280
     49 H24         1.3717    2.7168    0.7343 H         1 <1>         0.0104
     50 H25         0.9532    2.1519   -0.8893 H         1 <1>         0.0104
     51 H26        -1.8512    1.1137    1.2830 H         1 <1>         0.0057
     52 H27        -0.9320    2.6394    1.4536 H         1 <1>         0.0057
     53 H28        -0.0116    0.2018    0.0785 H         1 <1>        -0.0857
     54 H29         0.4288    0.6578    1.5928 H         1 <1>        -0.0857
@<TRIPOS>BOND
     1    1    2 ar
     2    1    3 ar
     3    2    6 ar
     4    3   10 ar
     5    4    7 ar
     6    4   11 ar
     7    5    8 ar
     8    5   11 ar
     9    6   13 ar
    10    7   14 ar
    11    8   14 ar
    12    9   12 2
    13    9   24 1
    14   10   12 1
    15   10   13 ar
    16   11   21 1
    17   12   22 1
    18   13   24 1
    19   14   24 1
    20   15   16 1
    21   15   17 1
    22   16   18 1
    23   17   19 1
    24   18   20 1
    25   19   20 1
    26   20   23 1
    27   22   25 1
    28   23   25 1
    29    1   26 1
    30    2   27 1
    31    3   28 1
    32    4   29 1
    33    5   30 1
    34    6   31 1
    35    7   32 1
    36    8   33 1
    37    9   34 1
    38   15   35 1
    39   15   36 1
    40   16   37 1
    41   16   38 1
    42   17   39 1
    43   17   40 1
    44   18   41 1
    45   18   42 1
    46   19   43 1
    47   19   44 1
    48   20   45 1
    49   21   46 1
    50   21   47 1
    51   21   48 1
    52   22   49 1
    53   22   50 1
    54   23   51 1
    55   23   52 1
    56   25   53 1
    57   25   54 1
@<TRIPOS>Similarity
1.3806
@<TRIPOS>ShapeSim
0.8480
@<TRIPOS>PharmSim
0.5326
# END
# Name:		DB00210
# Created and modified by SHAFTS on Sun Nov 24 10:54:01 2013

# 

@<TRIPOS>MOLECULE
DB00210
   58    63     0
SMALL
USER_CHARGE


@<TRIPOS>ATOM
      1 C1         -1.2529    1.5952    0.6919 C.ar      1 <1>         0.0000
      2 C2         -1.0510    5.1662   -0.3015 C.ar      1 <1>         0.0000
      3 C3          0.0373    1.1561    0.3932 C.ar      1 <1>         0.0000
      4 C4          3.0243    2.1805   -1.4843 C.ar      1 <1>         0.0000
      5 C5         -2.3412    5.6053   -0.0029 C.ar      1 <1>         0.0000
      6 C6          4.3133    1.7395   -1.7837 C.ar      1 <1>         0.0000
      7 C7          0.6164    3.3724   -0.3686 C.ar      1 <1>         0.0000
      8 C8         -2.9204    3.3889    0.7588 C.ar      1 <1>         0.0000
      9 C9          2.8788    0.5492    0.2918 C.ar      1 <1>         0.0000
     10 C10        -0.6776    3.8317   -0.0739 C.ar      1 <1>         0.0000
     11 C11        -1.6263    2.9298    0.4642 C.ar      1 <1>         0.0000
     12 C12         0.9701    2.0429   -0.1360 C.ar      1 <1>         0.0000
     13 C13         2.3070    1.5854   -0.4464 C.ar      1 <1>         0.0000
     14 C14        -3.2741    4.7183    0.5264 C.ar      1 <1>         0.0000
     15 C15         4.1678    0.1082   -0.0077 C.ar      1 <1>         0.0000
     16 C16         4.8850    0.7034   -1.0455 C.ar      1 <1>         0.0000
     17 C17        -4.6349    5.1833    0.8399 C.2       1 <1>         0.0000
     18 C18         4.7197   -3.8197    1.7882 C.3       1 <1>         0.0000
     19 C19         5.6658   -2.1496    3.4007 C.3       1 <1>         0.0000
     20 C20         7.0035   -2.8612    1.4041 C.3       1 <1>         0.0000
     21 C21         3.7756   -1.5007    1.8889 C.3       1 <1>         0.0000
     22 C22         5.1061   -2.2249   -0.1084 C.3       1 <1>         0.0000
     23 C23         6.0611   -0.5392    1.5189 C.3       1 <1>         0.0000
     24 C24         4.3833   -2.6455    2.7182 C.3       1 <1>         0.0000
     25 C25         5.7232   -3.3663    0.7188 C.3       1 <1>         0.0000
     26 C26         6.6747   -1.6868    2.3402 C.3       1 <1>         0.0000
     27 C27         4.7638   -1.0010    0.7917 C.3       1 <1>         0.0000
     28 C28         6.8046    0.9485   -2.4276 C.3       1 <1>         0.0000
     29 O1         -5.4797    4.3428    1.3285 O.co2     1 <1>        -0.5000
     30 O2         -4.9362    6.4151    0.6151 O.co2     1 <1>        -0.5000
     31 O3          6.1444    0.2844   -1.3520 O.3       1 <1>         0.0000
     32 H1         -1.9660    0.8843    1.1041 H         1 <1>         0.0000
     33 H2         -0.3386    5.8774   -0.7145 H         1 <1>         0.0000
     34 H3          0.2981    0.1168    0.5788 H         1 <1>         0.0000
     35 H4          2.5928    2.9894   -2.0692 H         1 <1>         0.0000
     36 H5         -2.6073    6.6429   -0.1880 H         1 <1>         0.0000
     37 H6          4.8669    2.2069   -2.5936 H         1 <1>         0.0000
     38 H7          1.3513    4.0611   -0.7835 H         1 <1>         0.0000
     39 H8         -3.6595    2.7045    1.1730 H         1 <1>         0.0000
     40 H9          2.3234    0.0815    1.1026 H         1 <1>         0.0000
     41 H10         5.1392   -4.6502    2.3694 H         1 <1>         0.0000
     42 H11         3.8060   -4.1950    1.3112 H         1 <1>         0.0000
     43 H12         5.4328   -1.3233    4.0836 H         1 <1>         0.0000
     44 H13         6.1013   -2.9517    4.0090 H         1 <1>         0.0000
     45 H14         7.4669   -3.6751    1.9752 H         1 <1>         0.0000
     46 H15         7.7345   -2.5466    0.6491 H         1 <1>         0.0000
     47 H16         2.8395   -1.8393    1.4245 H         1 <1>         0.0000
     48 H17         3.5022   -0.6698    2.5536 H         1 <1>         0.0000
     49 H18         5.8067   -1.9235   -0.8987 H         1 <1>         0.0000
     50 H19         4.2025   -2.5839   -0.6193 H         1 <1>         0.0000
     51 H20         5.8435    0.3129    2.1770 H         1 <1>         0.0000
     52 H21         6.7942   -0.1806    0.7840 H         1 <1>         0.0000
     53 H22         3.6642   -2.9717    3.4780 H         1 <1>         0.0000
     54 H23         5.9651   -4.2080    0.0602 H         1 <1>         0.0000
     55 H24         7.5908   -1.3385    2.8305 H         1 <1>         0.0000
     56 H25         7.7994    0.5182   -2.5669 H         1 <1>         0.0000
     57 H26         6.8855    2.0151   -2.2037 H         1 <1>         0.0000
     58 H27         6.2205    0.8132   -3.3411 H         1 <1>         0.0000
@<TRIPOS>BOND
     1    1    3 ar
     2    1   11 ar
     3    2    5 ar
     4    2   10 ar
     5    3   12 ar
     6    4    6 ar
     7    4   13 ar
     8    5   14 ar
     9    6   16 ar
    10    7   10 ar
    11    7   12 ar
    12    8   11 ar
    13    8   14 ar
    14    9   13 ar
    15    9   15 ar
    16   10   11 ar
    17   12   13 1
    18   14   17 1
    19   15   16 ar
    20   15   27 1
    21   16   31 1
    22   17   29 1
    23   17   30 2
    24   18   24 1
    25   18   25 1
    26   19   24 1
    27   19   26 1
    28   20   25 1
    29   20   26 1
    30   21   24 1
    31   21   27 1
    32   22   25 1
    33   22   27 1
    34   23   26 1
    35   23   27 1
    36   28   31 1
    37    1   32 1
    38    2   33 1
    39    3   34 1
    40    4   35 1
    41    5   36 1
    42    6   37 1
    43    7   38 1
    44    8   39 1
    45    9   40 1
    46   18   41 1
    47   18   42 1
    48   19   43 1
    49   19   44 1
    50   20   45 1
    51   20   46 1
    52   21   47 1
    53   21   48 1
    54   22   49 1
    55   22   50 1
    56   23   51 1
    57   23   52 1
    58   24   53 1
    59   25   54 1
    60   26   55 1
    61   28   56 1
    62   28   57 1
    63   28   58 1
@<TRIPOS>Similarity
1.3755
@<TRIPOS>ShapeSim
0.8099
@<TRIPOS>PharmSim
0.5656
# END
# Name:		DB07728
# Created and modified by SHAFTS on Sun Nov 24 10:54:01 2013

# 

@<TRIPOS>MOLECULE
DB07728
   37    40     0
SMALL
USER_CHARGE


@<TRIPOS>ATOM
      1 C1          6.0332   -3.5044    1.0097 C.ar      1 <1>        -0.0614
      2 C2          6.1906   -3.3544    2.3874 C.ar      1 <1>        -0.0593
      3 C3          5.4958   -2.4640    0.2517 C.ar      1 <1>        -0.0499
      4 C4          5.8106   -2.1639    3.0072 C.ar      1 <1>        -0.0256
      5 C5          3.6200    1.8326   -1.4764 C.ar      1 <1>        -0.0346
      6 C6          3.2853    0.2827    0.3320 C.ar      1 <1>        -0.0265
      7 C7          1.0105    3.1332   -0.4655 C.2       1 <1>        -0.0261
      8 C8          4.8798    1.2809   -1.6446 C.ar      1 <1>         0.0282
      9 C9          5.1158   -1.2736    0.8715 C.ar      1 <1>         0.0359
     10 C10         2.8138    1.3183   -0.4670 C.ar      1 <1>        -0.0005
     11 C11        -0.3550    3.1339   -0.0918 C.2       1 <1>         0.0560
     12 C12         5.2731   -1.1235    2.2493 C.ar      1 <1>         0.1321
     13 C13         4.5601   -0.1999    0.0826 C.ar      1 <1>         0.0738
     14 C14         1.4929    1.8579   -0.2495 C.2       1 <1>         0.0383
     15 C15        -0.6524    1.8623    0.3504 C.2       1 <1>         0.0213
     16 C16        -1.3543    4.1854   -0.0909 C.2       1 <1>         0.2446
     17 C17        -1.9698    1.4269    0.8704 C.3       1 <1>         0.0018
     18 C18        -3.0408    2.3341    0.2529 C.3       1 <1>         0.0166
     19 N1          5.3723    0.2743   -0.8885 N.ar      1 <1>        -0.2560
     20 N2          0.4688    1.0902    0.2492 N.pl3     1 <1>        -0.3171
     21 N3         -2.6444    3.7458    0.2066 N.am      1 <1>        -0.3109
     22 O1         -1.0734    5.3591   -0.3150 O.2       1 <1>        -0.2718
     23 F1          4.9114    0.0138    2.8608 F         1 <1>        -0.2062
     24 H1          6.3294   -4.4313    0.5272 H         1 <1>         0.0623
     25 H2          6.6089   -4.1644    2.9776 H         1 <1>         0.0623
     26 H3          5.3793   -2.5965   -0.8214 H         1 <1>         0.0631
     27 H4          5.9331   -2.0471    4.0800 H         1 <1>         0.0653
     28 H5          3.2865    2.6399   -2.1204 H         1 <1>         0.0646
     29 H6          2.6735   -0.1354    1.1268 H         1 <1>         0.0652
     30 H7          1.5800    3.9686   -0.8505 H         1 <1>         0.0651
     31 H8          5.5475    1.6464   -2.4180 H         1 <1>         0.0840
     32 H9         -2.1774    0.3780    0.6356 H         1 <1>         0.0345
     33 H10        -1.9750    1.5379    1.9611 H         1 <1>         0.0345
     34 H11        -3.2358    2.0365   -0.7843 H         1 <1>         0.0471
     35 H12        -3.9807    2.2626    0.8088 H         1 <1>         0.0471
     36 H13         0.5361    0.1146    0.5073 H         1 <1>         0.1525
     37 H14        -3.3529    4.4462    0.4031 H         1 <1>         0.1497
@<TRIPOS>BOND
     1    1    2 ar
     2    1    3 ar
     3    2    4 ar
     4    3    9 ar
     5    4   12 ar
     6    5    8 ar
     7    5   10 ar
     8    6   10 ar
     9    6   13 ar
    10    7   11 1
    11    7   14 2
    12    8   19 ar
    13    9   12 ar
    14    9   13 1
    15   10   14 1
    16   11   15 2
    17   11   16 1
    18   12   23 1
    19   13   19 ar
    20   14   20 1
    21   15   17 1
    22   15   20 1
    23   16   21 am
    24   16   22 2
    25   17   18 1
    26   18   21 1
    27    1   24 1
    28    2   25 1
    29    3   26 1
    30    4   27 1
    31    5   28 1
    32    6   29 1
    33    7   30 1
    34    8   31 1
    35   17   32 1
    36   17   33 1
    37   18   34 1
    38   18   35 1
    39   20   36 1
    40   21   37 1
@<TRIPOS>Similarity
1.3385
@<TRIPOS>ShapeSim
0.8782
@<TRIPOS>PharmSim
0.4603
# END
# Name:		DB07151
# Created and modified by SHAFTS on Sun Nov 24 10:54:01 2013

# 

@<TRIPOS>MOLECULE
DB07151
   35    37     0
SMALL
USER_CHARGE


@<TRIPOS>ATOM
      1 C1         -1.0948    2.9302    0.0699 C.ar      1 <1>        -0.0622
      2 C2         -0.7418    1.6598    0.5249 C.ar      1 <1>        -0.0616
      3 C3         -0.1486    3.7291   -0.5721 C.ar      1 <1>        -0.0616
      4 C4          0.5575    1.1883    0.3379 C.ar      1 <1>        -0.0531
      5 C5          1.1507    3.2576   -0.7590 C.ar      1 <1>        -0.0531
      6 C6          5.9746   -2.2256    0.2330 C.ar      1 <1>        -0.0505
      7 C7          6.4593   -3.3020    0.9759 C.ar      1 <1>        -0.0311
      8 C8          4.9419   -1.3190    2.2201 C.ar      1 <1>        -0.0476
      9 C9          1.5039    1.9871   -0.3040 C.ar      1 <1>        -0.0035
     10 C10         5.2159   -1.2341    0.8551 C.ar      1 <1>        -0.0030
     11 C11         5.4265   -2.3954    2.9631 C.ar      1 <1>        -0.0204
     12 C12         6.1853   -3.3869    2.3410 C.ar      1 <1>         0.0743
     13 C13         2.8585    1.4954   -0.4988 C.2       1 <1>         0.0594
     14 C14         4.7097   -0.1091    0.0775 C.2       1 <1>         0.0595
     15 C15         4.8625    1.4118   -1.6594 C.2       1 <1>         0.3671
     16 C16         3.4169    0.5281    0.5141 C.3       1 <1>         0.0339
     17 C17         5.1226   -2.4714    4.4230 C.3       1 <1>        -0.0372
     18 N1          3.5742    1.8889   -1.5059 N.2       1 <1>        -0.1956
     19 N2          5.3621    0.3372   -0.9478 N.2       1 <1>        -0.1956
     20 O1          5.5924    1.9554   -2.4861 O.2       1 <1>        -0.2436
     21 O2          6.6644   -4.4465    3.0511 O.3       1 <1>        -0.3606
     22 H1         -2.1065    3.2974    0.2154 H         1 <1>         0.0622
     23 H2         -1.4787    1.0381    1.0249 H         1 <1>         0.0623
     24 H3         -0.4236    4.7182   -0.9266 H         1 <1>         0.0623
     25 H4          0.8219    0.1968    0.6964 H         1 <1>         0.0629
     26 H5          1.8799    3.8887   -1.2605 H         1 <1>         0.0629
     27 H6          6.1947   -2.1687   -0.8301 H         1 <1>         0.0630
     28 H7          7.0512   -4.0697    0.4852 H         1 <1>         0.0650
     29 H8          4.3496   -0.5470    2.7063 H         1 <1>         0.0633
     30 H9          3.6008    1.0755    1.4458 H         1 <1>         0.0399
     31 H10         2.6762   -0.2549    0.7101 H         1 <1>         0.0399
     32 H11         4.1875   -3.0191    4.5887 H         1 <1>         0.0281
     33 H12         5.9266   -2.9794    4.9698 H         1 <1>         0.0281
     34 H13         5.0231   -1.4699    4.8601 H         1 <1>         0.0281
     35 H14         7.1662   -5.0395    2.4703 H         1 <1>         0.2182
@<TRIPOS>BOND
     1    1    2 ar
     2    1    3 ar
     3    2    4 ar
     4    3    5 ar
     5    4    9 ar
     6    5    9 ar
     7    6    7 ar
     8    6   10 ar
     9    7   12 ar
    10    8   10 ar
    11    8   11 ar
    12    9   13 1
    13   10   14 1
    14   11   12 ar
    15   11   17 1
    16   12   21 1
    17   13   16 1
    18   13   18 2
    19   14   16 1
    20   14   19 2
    21   15   18 1
    22   15   19 1
    23   15   20 2
    24    1   22 1
    25    2   23 1
    26    3   24 1
    27    4   25 1
    28    5   26 1
    29    6   27 1
    30    7   28 1
    31    8   29 1
    32   16   30 1
    33   16   31 1
    34   17   32 1
    35   17   33 1
    36   17   34 1
    37   21   35 1
@<TRIPOS>Similarity
1.3297
@<TRIPOS>ShapeSim
0.9021
@<TRIPOS>PharmSim
0.4276
# END
# Name:		DB08317
# Created and modified by SHAFTS on Sun Nov 24 10:54:01 2013

# 

@<TRIPOS>MOLECULE
DB08317
   33    35     0
SMALL
USER_CHARGE


@<TRIPOS>ATOM
      1 C1         -1.4404    3.1664    0.1167 C.ar      1 <1>        -0.0622
      2 C2         -0.3222    3.9785    0.1786 C.ar      1 <1>        -0.0616
      3 C3         -1.3044    1.8099   -0.1176 C.ar      1 <1>        -0.0616
      4 C4          0.9362    3.4386    0.0063 C.ar      1 <1>        -0.0544
      5 C5         -0.0513    1.2603   -0.2971 C.ar      1 <1>        -0.0544
      6 C6          2.8556    0.4417    0.4157 C.ar      1 <1>        -0.0519
      7 C7          4.0910   -0.1086    0.2685 C.ar      1 <1>        -0.0349
      8 C8          4.5293    1.4178   -1.5796 C.ar      1 <1>         0.0438
      9 C9          1.0791    2.0727   -0.2305 C.ar      1 <1>        -0.0181
     10 C10         2.4291    1.4867   -0.4170 C.ar      1 <1>        -0.0146
     11 C11         3.2596    1.9759   -1.4122 C.ar      1 <1>        -0.0303
     12 C12         4.9517    0.3625   -0.7340 C.ar      1 <1>         0.0779
     13 C13         5.4233    1.8770   -2.5801 C.ar      1 <1>         0.1284
     14 C14         6.9671    0.3086   -1.8607 C.ar      1 <1>         0.2133
     15 C15         2.7982    3.0991   -2.3046 C.3       1 <1>        -0.0384
     16 N1          6.1751   -0.1569   -0.9135 N.ar      1 <1>        -0.2151
     17 N2          6.6107    1.2971   -2.6759 N.ar      1 <1>        -0.1999
     18 N3          5.0660    2.9001   -3.4314 N.pl3     1 <1>        -0.3426
     19 N4          8.2207   -0.2553   -2.0120 N.pl3     1 <1>        -0.3273
     20 H1         -2.4232    3.5931    0.2522 H         1 <1>         0.0622
     21 H2         -0.4341    5.0367    0.3625 H         1 <1>         0.0623
     22 H3         -2.1809    1.1806   -0.1646 H         1 <1>         0.0623
     23 H4          1.8085    4.0734    0.0552 H         1 <1>         0.0629
     24 H5          0.0537    0.2010   -0.4800 H         1 <1>         0.0629
     25 H6          2.1960    0.0717    1.1867 H         1 <1>         0.0630
     26 H7          4.4055   -0.9127    0.9172 H         1 <1>         0.0646
     27 H8          2.4189    2.6876   -3.2400 H         1 <1>         0.0280
     28 H9          2.0062    3.6576   -1.8057 H         1 <1>         0.0280
     29 H10         3.6357    3.7645   -2.5137 H         1 <1>         0.0280
     30 H11         5.7048    3.5977   -3.6464 H         1 <1>         0.1442
     31 H12         4.1755    2.9228   -3.8156 H         1 <1>         0.1442
     32 H13         8.8193    0.0713   -2.7019 H         1 <1>         0.1457
     33 H14         8.5013   -0.9775   -1.4284 H         1 <1>         0.1457
@<TRIPOS>BOND
     1    1    2 ar
     2    1    3 ar
     3    2    4 ar
     4    3    5 ar
     5    4    9 ar
     6    5    9 ar
     7    6    7 ar
     8    6   10 ar
     9    7   12 ar
    10    8   11 ar
    11    8   12 ar
    12    8   13 ar
    13    9   10 1
    14   10   11 ar
    15   11   15 1
    16   12   16 ar
    17   13   17 ar
    18   13   18 1
    19   14   16 ar
    20   14   17 ar
    21   14   19 1
    22    1   20 1
    23    2   21 1
    24    3   22 1
    25    4   23 1
    26    5   24 1
    27    6   25 1
    28    7   26 1
    29   15   27 1
    30   15   28 1
    31   15   29 1
    32   18   30 1
    33   18   31 1
    34   19   32 1
    35   19   33 1
@<TRIPOS>Similarity
1.3255
@<TRIPOS>ShapeSim
0.7843
@<TRIPOS>PharmSim
0.5412
# END
# Name:		DB08789
# Created and modified by SHAFTS on Sun Nov 24 10:54:01 2013

# 

@<TRIPOS>MOLECULE
DB08789
   35    37     0
SMALL
USER_CHARGE


@<TRIPOS>ATOM
      1 C1          1.3786    3.8020   -0.5485 C.ar      1 <1>        -0.0498
      2 C2          0.1022    4.1795   -0.1316 C.ar      1 <1>        -0.0427
      3 C3          3.3922    0.2532    0.2964 C.2       1 <1>        -0.0306
      4 C4         -0.7090    1.9522   -0.5989 C.ar      1 <1>        -0.0241
      5 C5          3.6776    1.1387   -0.7900 C.ar      1 <1>         0.0350
      6 C6          1.6113    2.4996   -0.9907 C.ar      1 <1>         0.0197
      7 C7         -0.9417    3.2546   -0.1568 C.ar      1 <1>         0.0421
      8 C8          0.5674    1.5747   -1.0159 C.ar      1 <1>         0.0515
      9 C9          2.9419    2.1533   -1.4108 C.ar      1 <1>         0.0855
     10 C10         4.4382   -0.6013    0.5693 C.2       1 <1>         0.0770
     11 C11         4.9502    0.9067   -1.2958 C.ar      1 <1>         0.1143
     12 C12         4.7208    2.5131   -2.8269 C.ar      1 <1>         0.2126
     13 C13         4.5271   -1.6152    1.5694 C.2       1 <1>         0.2498
     14 C14         6.9361   -4.0309    2.5781 C.3       1 <1>        -0.0496
     15 C15         5.5042   -3.8621    2.1989 C.3       1 <1>         0.0085
     16 N1          3.4736    2.8459   -2.4406 N.ar      1 <1>        -0.2145
     17 N2          5.5291    1.5656   -2.3187 N.ar      1 <1>        -0.2078
     18 N3          5.2479    3.2560   -3.9074 N.pl3     1 <1>        -0.3273
     19 N4          5.3313   -2.7444    1.2991 N.am      1 <1>        -0.3112
     20 O1          3.8965   -1.5273    2.6544 O.2       1 <1>        -0.2712
     21 S1          5.7667   -0.3452   -0.4773 S.3       1 <1>        -0.0638
     22 Cl1        -2.5161    3.7217    0.3577 Cl        1 <1>        -0.0843
     23 Cl2         0.7990   -0.0527   -1.5542 Cl        1 <1>        -0.0835
     24 H1          2.1806    4.5361   -0.5219 H         1 <1>         0.0631
     25 H2         -0.0645    5.1977    0.2104 H         1 <1>         0.0638
     26 H3          2.4624    0.2433    0.8521 H         1 <1>         0.0644
     27 H4         -1.5252    1.2329   -0.6174 H         1 <1>         0.0654
     28 H5          7.5548   -4.2195    1.6941 H         1 <1>         0.0246
     29 H6          7.3098   -3.1415    3.0973 H         1 <1>         0.0246
     30 H7          7.0427   -4.8876    3.2542 H         1 <1>         0.0246
     31 H8          4.8921   -3.6740    3.0862 H         1 <1>         0.0464
     32 H9          5.1282   -4.7571    1.6947 H         1 <1>         0.0464
     33 H10         4.6718    3.9392   -4.3530 H         1 <1>         0.1457
     34 H11         6.1498    3.0189   -4.2646 H         1 <1>         0.1457
     35 H12         5.7746   -2.8119    0.3887 H         1 <1>         0.1496
@<TRIPOS>BOND
     1    1    2 ar
     2    1    6 ar
     3    2    7 ar
     4    3    5 1
     5    3   10 2
     6    4    7 ar
     7    4    8 ar
     8    5    9 ar
     9    5   11 ar
    10    6    8 ar
    11    6    9 1
    12    7   22 1
    13    8   23 1
    14    9   16 ar
    15   10   13 1
    16   10   21 1
    17   11   17 ar
    18   11   21 1
    19   12   16 ar
    20   12   17 ar
    21   12   18 1
    22   13   19 am
    23   13   20 2
    24   14   15 1
    25   15   19 1
    26    1   24 1
    27    2   25 1
    28    3   26 1
    29    4   27 1
    30   14   28 1
    31   14   29 1
    32   14   30 1
    33   15   31 1
    34   15   32 1
    35   18   33 1
    36   18   34 1
    37   19   35 1
@<TRIPOS>Similarity
1.3247
@<TRIPOS>ShapeSim
0.8629
@<TRIPOS>PharmSim
0.4619
# END
# Name:		DB07241
# Created and modified by SHAFTS on Sun Nov 24 10:54:01 2013

# 

@<TRIPOS>MOLECULE
DB07241
   39    44     0
SMALL
USER_CHARGE


@<TRIPOS>ATOM
      1 C1          6.8849   -2.9740    1.5899 C.ar      1 <1>         0.0000
      2 C2         -0.9046    3.4976   -0.5412 C.ar      1 <1>         0.0000
      3 C3          6.0937   -3.5035    2.6038 C.ar      1 <1>         0.0000
      4 C4         -1.6124    2.8978    0.4952 C.ar      1 <1>         0.0000
      5 C5          6.4167   -1.9311    0.7842 C.ar      1 <1>         0.0000
      6 C6          0.3892    3.0764   -0.8648 C.ar      1 <1>         0.0000
      7 C7          4.8090   -3.0122    2.8488 C.ar      1 <1>         0.0000
      8 C8         -1.0550    1.8585    1.2440 C.ar      1 <1>         0.0000
      9 C9          5.1255   -1.4022    0.9948 C.ar      1 <1>         0.0000
     10 C10         0.9934    2.0300   -0.1362 C.ar      1 <1>         0.0000
     11 C11         4.3715   -0.3832    0.3816 C.ar      1 <1>         0.0000
     12 C12         2.2431    1.3843   -0.2012 C.ar      1 <1>         0.0000
     13 C13         4.4674    0.5496   -0.6421 C.ar      1 <1>         0.0000
     14 C14         3.4260    1.4143   -0.9275 C.ar      1 <1>         0.0000
     15 C15         4.3238   -1.9662    2.0500 C.ar      1 <1>         0.0000
     16 C16         0.2420    1.4239    0.9327 C.ar      1 <1>         0.0000
     17 C17         3.1808   -0.4247    1.1233 C.ar      1 <1>         0.0000
     18 C18         2.1327    0.4455    0.8363 C.ar      1 <1>         0.0000
     19 C19         5.5014    0.7905   -1.4996 C.2       1 <1>         0.0000
     20 C20         3.7807    2.2189   -1.9710 C.2       1 <1>         0.0000
     21 C21         6.8746    0.1541   -1.6463 C.2       1 <1>         0.0000
     22 N1          3.0769   -1.3342    2.1267 N.pl3     1 <1>         0.0000
     23 N2          0.9793    0.4080    1.5526 N.pl3     1 <1>         0.0000
     24 N3          5.0665    1.8249   -2.3179 N.pl3     1 <1>         0.0000
     25 O1          7.8166    0.6679   -0.9760 O.co2     1 <1>        -0.5000
     26 O2          6.9640   -0.8375   -2.4269 O.co2     1 <1>        -0.5000
     27 O3          3.1838    3.1958   -2.6336 O.3       1 <1>         0.0000
     28 H1          7.8810   -3.3749    1.4210 H         1 <1>         0.0000
     29 H2         -1.3616    4.3043   -1.1084 H         1 <1>         0.0000
     30 H3          6.4804   -4.3136    3.2173 H         1 <1>         0.0000
     31 H4         -2.6169    3.2425    0.7274 H         1 <1>         0.0000
     32 H5          7.0757   -1.5598    0.0118 H         1 <1>         0.0000
     33 H6          0.9084    3.5692   -1.6796 H         1 <1>         0.0000
     34 H7          4.2018   -3.4353    3.6435 H         1 <1>         0.0000
     35 H8         -1.6188    1.3992    2.0503 H         1 <1>         0.0000
     36 H9          2.3075   -1.5091    2.7596 H         1 <1>         0.0000
     37 H10         0.7207   -0.1917    2.3252 H         1 <1>         0.0000
     38 H11         5.6090    2.2366   -3.0641 H         1 <1>         0.0000
     39 H12         3.7507    3.5640   -3.3493 H         1 <1>         0.0000
@<TRIPOS>BOND
     1    1    3 ar
     2    1    5 ar
     3    2    4 ar
     4    2    6 ar
     5    3    7 ar
     6    4    8 ar
     7    5    9 ar
     8    6   10 ar
     9    7   15 ar
    10    8   16 ar
    11    9   11 1
    12    9   15 ar
    13   10   12 1
    14   10   16 ar
    15   11   13 ar
    16   11   17 ar
    17   12   14 ar
    18   12   18 ar
    19   13   14 ar
    20   13   19 2
    21   14   20 2
    22   15   22 1
    23   16   23 1
    24   17   18 ar
    25   17   22 1
    26   18   23 1
    27   19   21 1
    28   19   24 1
    29   20   24 1
    30   20   27 1
    31   21   25 1
    32   21   26 2
    33    1   28 1
    34    2   29 1
    35    3   30 1
    36    4   31 1
    37    5   32 1
    38    6   33 1
    39    7   34 1
    40    8   35 1
    41   22   36 1
    42   23   37 1
    43   24   38 1
    44   27   39 1
@<TRIPOS>Similarity
1.3180
@<TRIPOS>ShapeSim
0.8440
@<TRIPOS>PharmSim
0.4740
# END
# Name:		DB08036
# Created and modified by SHAFTS on Sun Nov 24 10:54:01 2013

# 

@<TRIPOS>MOLECULE
DB08036
   37    42     0
SMALL
USER_CHARGE


@<TRIPOS>ATOM
      1 C1          7.2086   -2.9335    1.3596 C.ar      1 <1>        -0.0615
      2 C2         -0.3711    3.6165   -0.9776 C.ar      1 <1>        -0.0615
      3 C3          6.4003   -3.4467    2.3653 C.ar      1 <1>        -0.0603
      4 C4         -1.1233    3.0528    0.0466 C.ar      1 <1>        -0.0603
      5 C5          6.7595   -1.8906    0.5420 C.ar      1 <1>        -0.0524
      6 C6          0.9187    3.1535   -1.2556 C.ar      1 <1>        -0.0524
      7 C7          5.1208   -2.9361    2.5857 C.ar      1 <1>        -0.0402
      8 C8         -0.6139    2.0113    0.8251 C.ar      1 <1>        -0.0402
      9 C9          5.4695   -1.3354    0.7224 C.ar      1 <1>         0.0058
     10 C10         1.4784    2.1001   -0.4944 C.ar      1 <1>         0.0053
     11 C11         4.7552   -0.2562    0.0230 C.ar      1 <1>         0.0197
     12 C12         2.7839    1.4364   -0.5736 C.ar      1 <1>         0.0124
     13 C13         4.9583    0.6415   -1.0259 C.ar      1 <1>         0.0523
     14 C14         3.9358    1.5372   -1.3534 C.ar      1 <1>        -0.0077
     15 C15         4.6604   -1.8900    1.7714 C.ar      1 <1>         0.0384
     16 C16         0.6790    1.5388    0.5552 C.ar      1 <1>         0.0383
     17 C17         3.5679   -0.3551    0.8213 C.ar      1 <1>         0.0614
     18 C18         2.5357    0.5322    0.5079 C.ar      1 <1>         0.0610
     19 C19         6.0800    0.8773   -1.9273 C.2       1 <1>         0.2443
     20 C20         4.3495    2.4048   -2.4937 C.3       1 <1>         0.0381
     21 N1          3.4322   -1.2485    1.8265 N.pl3     1 <1>        -0.3123
     22 N2          1.3725    0.5235    1.1990 N.pl3     1 <1>        -0.3123
     23 N3          5.6869    1.9137   -2.7697 N.am      1 <1>        -0.3071
     24 O1          7.1349    0.2734   -1.9211 O.2       1 <1>        -0.2718
     25 H1          8.2023   -3.3451    1.2041 H         1 <1>         0.0623
     26 H2         -0.7886    4.4263   -1.5702 H         1 <1>         0.0623
     27 H3          6.7678   -4.2569    2.9896 H         1 <1>         0.0623
     28 H4         -2.1243    3.4276    0.2452 H         1 <1>         0.0623
     29 H5          7.4213   -1.5177   -0.2328 H         1 <1>         0.0630
     30 H6          1.4874    3.6106   -2.0613 H         1 <1>         0.0630
     31 H7          4.4955   -3.3441    3.3744 H         1 <1>         0.0642
     32 H8         -1.2112    1.5794    1.6225 H         1 <1>         0.0642
     33 H9          3.7256    2.2561   -3.3782 H         1 <1>         0.0518
     34 H10         4.4080    3.4597   -2.2156 H         1 <1>         0.0518
     35 H11         2.6490   -1.4045    2.4476 H         1 <1>         0.1529
     36 H12         1.0885   -0.0630    1.9729 H         1 <1>         0.1529
     37 H13         6.2778    2.2892   -3.5048 H         1 <1>         0.1500
@<TRIPOS>BOND
     1    1    3 ar
     2    1    5 ar
     3    2    4 ar
     4    2    6 ar
     5    3    7 ar
     6    4    8 ar
     7    5    9 ar
     8    6   10 ar
     9    7   15 ar
    10    8   16 ar
    11    9   11 1
    12    9   15 ar
    13   10   12 1
    14   10   16 ar
    15   11   13 ar
    16   11   17 ar
    17   12   14 ar
    18   12   18 ar
    19   13   14 ar
    20   13   19 1
    21   14   20 1
    22   15   21 1
    23   16   22 1
    24   17   18 ar
    25   17   21 1
    26   18   22 1
    27   19   23 am
    28   19   24 2
    29   20   23 1
    30    1   25 1
    31    2   26 1
    32    3   27 1
    33    4   28 1
    34    5   29 1
    35    6   30 1
    36    7   31 1
    37    8   32 1
    38   20   33 1
    39   20   34 1
    40   21   35 1
    41   22   36 1
    42   23   37 1
@<TRIPOS>Similarity
1.3052
@<TRIPOS>ShapeSim
0.8668
@<TRIPOS>PharmSim
0.4384
# END
# Name:		DB08049
# Created and modified by SHAFTS on Sun Nov 24 10:54:01 2013

# 

@<TRIPOS>MOLECULE
DB08049
   29    31     0
SMALL
USER_CHARGE


@<TRIPOS>ATOM
      1 C1          6.0091   -3.2420    2.3821 C.ar      1 <1>        -0.0622
      2 C2          6.0751   -1.9367    2.8694 C.ar      1 <1>        -0.0616
      3 C3          5.1627   -3.5465    1.3161 C.ar      1 <1>        -0.0616
      4 C4          5.2946   -0.9359    2.2907 C.ar      1 <1>        -0.0543
      5 C5          4.3822   -2.5458    0.7374 C.ar      1 <1>        -0.0543
      6 C6          5.2690    0.5737   -1.1386 C.ar      1 <1>        -0.0489
      7 C7          5.5923    1.4191   -2.2051 C.ar      1 <1>        -0.0286
      8 C8          4.4481   -1.2404    1.2247 C.ar      1 <1>        -0.0175
      9 C9          4.0224    0.6696   -0.5062 C.ar      1 <1>         0.0164
     10 C10         3.1245    1.6279   -0.9733 C.ar      1 <1>         0.1261
     11 C11         4.6758    2.3698   -2.6528 C.ar      1 <1>         0.1041
     12 C12         3.4332    2.4780   -2.0359 C.ar      1 <1>         0.1335
     13 C13         2.4117   -0.0234    1.1563 C.2       1 <1>         0.0195
     14 C14         3.6308   -0.1933    0.6188 C.2       1 <1>        -0.0023
     15 C15         1.4493    0.9839    0.6740 C.2       1 <1>         0.2912
     16 O1          0.3452    1.1059    1.1933 O.2       1 <1>        -0.2609
     17 O2          1.8540    1.7796   -0.3862 O.3       1 <1>        -0.2712
     18 O3          5.0090    3.1840   -3.6924 O.3       1 <1>        -0.3581
     19 O4          2.5321    3.4035   -2.4671 O.3       1 <1>        -0.3561
     20 H1          6.6178   -4.0210    2.8318 H         1 <1>         0.0622
     21 H2          6.7351   -1.6991    3.6988 H         1 <1>         0.0623
     22 H3          5.1121   -4.5625    0.9358 H         1 <1>         0.0623
     23 H4          5.3568    0.0769    2.6817 H         1 <1>         0.0629
     24 H5          3.7272   -2.7989   -0.0929 H         1 <1>         0.0629
     25 H6          6.0075   -0.1559   -0.8154 H         1 <1>         0.0631
     26 H7          6.5647    1.3290   -2.6824 H         1 <1>         0.0651
     27 H8          2.0702   -0.6323    1.9900 H         1 <1>         0.0694
     28 H9          5.9042    2.9792   -4.0054 H         1 <1>         0.2183
     29 H10         2.8999    3.9102   -3.2084 H         1 <1>         0.2184
@<TRIPOS>BOND
     1    1    2 ar
     2    1    3 ar
     3    2    4 ar
     4    3    5 ar
     5    4    8 ar
     6    5    8 ar
     7    6    7 ar
     8    6    9 ar
     9    7   11 ar
    10    8   14 1
    11    9   10 ar
    12    9   14 1
    13   10   12 ar
    14   10   17 1
    15   11   12 ar
    16   11   18 1
    17   12   19 1
    18   13   14 2
    19   13   15 1
    20   15   16 2
    21   15   17 1
    22    1   20 1
    23    2   21 1
    24    3   22 1
    25    4   23 1
    26    5   24 1
    27    6   25 1
    28    7   26 1
    29   13   27 1
    30   18   28 1
    31   19   29 1
@<TRIPOS>Similarity
1.3051
@<TRIPOS>ShapeSim
0.8059
@<TRIPOS>PharmSim
0.4992
# END
# Name:		DB08299
# Created and modified by SHAFTS on Sun Nov 24 10:54:01 2013

# 

@<TRIPOS>MOLECULE
DB08299
   40    43     0
SMALL
USER_CHARGE


@<TRIPOS>ATOM
      1 C1         -0.8620    1.3095    0.7539 C.ar      1 <1>         0.0000
      2 C2          4.7978    3.2034   -3.5836 C.ar      1 <1>         0.0000
      3 C3          5.3611    2.1717   -2.8450 C.ar      1 <1>         0.0000
      4 C4          0.4294    0.9176    0.4014 C.ar      1 <1>         0.0000
      5 C5          5.2240   -2.2930    0.2330 C.ar      1 <1>         0.0000
      6 C6          4.9668   -0.8946    2.1863 C.ar      1 <1>         0.0000
      7 C7          5.6897   -3.3324    1.0383 C.ar      1 <1>         0.0000
      8 C8          5.4325   -1.9340    2.9917 C.ar      1 <1>         0.0000
      9 C9         -1.2663    2.6309    0.5636 C.ar      1 <1>         0.0000
     10 C10         5.1660    0.5323   -1.0340 C.ar      1 <1>         0.0000
     11 C11         0.9124    3.1685   -0.3316 C.ar      1 <1>         0.0000
     12 C12         3.5187    3.6047   -3.2513 C.ar      1 <1>         0.0000
     13 C13         4.6366    1.5751   -1.8041 C.ar      1 <1>         0.0000
     14 C14         4.8627   -1.0742    0.8070 C.ar      1 <1>         0.0000
     15 C15         1.3166    1.8471   -0.1413 C.ar      1 <1>         0.0000
     16 C16         5.7939   -3.1528    2.4177 C.ar      1 <1>         0.0000
     17 C17         3.3411    2.0551   -1.5435 C.ar      1 <1>         0.0000
     18 C18        -0.3791    3.5603    0.0209 C.ar      1 <1>         0.0000
     19 C19         4.3814    0.0017   -0.0261 C.ar      1 <1>         0.0000
     20 C20         2.6577    1.4403   -0.5076 C.ar      1 <1>         0.0000
     21 C21         6.2837   -4.2501    3.2675 C.2       1 <1>         0.0000
     22 N1          2.7862    3.0561   -2.2553 N.ar      1 <1>         0.0000
     23 N2          3.1361    0.4308    0.2578 N.ar      1 <1>         0.0000
     24 N3         -0.7904    4.9058   -0.1729 N.pl3     1 <1>         0.0000
     25 O1          6.3707   -4.0584    4.5382 O.co2     1 <1>        -0.5000
     26 O2          6.6095   -5.3659    2.7129 O.co2     1 <1>        -0.5000
     27 O3         -1.9563    5.2376    0.1509 O.2       1 <1>         0.0000
     28 O4          0.0236    5.7258   -0.6621 O.2       1 <1>         0.0000
     29 H1         -1.5529    0.5857    1.1762 H         1 <1>         0.0000
     30 H2          5.3433    3.6752   -4.3926 H         1 <1>         0.0000
     31 H3          6.3671    1.8362   -3.0856 H         1 <1>         0.0000
     32 H4          0.7298   -0.1159    0.5560 H         1 <1>         0.0000
     33 H5          5.1483   -2.4484   -0.8407 H         1 <1>         0.0000
     34 H6          4.6891    0.0496    2.6484 H         1 <1>         0.0000
     35 H7          5.9696   -4.2780    0.5809 H         1 <1>         0.0000
     36 H8          5.5109   -1.7847    4.0655 H         1 <1>         0.0000
     37 H9         -2.2756    2.9232    0.8429 H         1 <1>         0.0000
     38 H10         6.1662    0.1519   -1.2237 H         1 <1>         0.0000
     39 H11         1.6032    3.8956   -0.7548 H         1 <1>         0.0000
     40 H12         3.0298    4.4066   -3.7946 H         1 <1>         0.0000
@<TRIPOS>BOND
     1    1    4 ar
     2    1    9 ar
     3    2    3 ar
     4    2   12 ar
     5    3   13 ar
     6    4   15 ar
     7    5    7 ar
     8    5   14 ar
     9    6    8 ar
    10    6   14 ar
    11    7   16 ar
    12    8   16 ar
    13    9   18 ar
    14   10   13 ar
    15   10   19 ar
    16   11   15 ar
    17   11   18 ar
    18   12   22 ar
    19   13   17 ar
    20   14   19 1
    21   15   20 1
    22   16   21 1
    23   17   20 ar
    24   17   22 ar
    25   18   24 1
    26   19   23 ar
    27   20   23 ar
    28   21   25 1
    29   21   26 2
    30   24   27 2
    31   24   28 2
    32    1   29 1
    33    2   30 1
    34    3   31 1
    35    4   32 1
    36    5   33 1
    37    6   34 1
    38    7   35 1
    39    8   36 1
    40    9   37 1
    41   10   38 1
    42   11   39 1
    43   12   40 1
@<TRIPOS>Similarity
1.2950
@<TRIPOS>ShapeSim
0.9044
@<TRIPOS>PharmSim
0.3907
# END
# Name:		DB02923
# Created and modified by SHAFTS on Sun Nov 24 10:54:01 2013

# 

@<TRIPOS>MOLECULE
DB02923
   24    25     0
SMALL
USER_CHARGE


@<TRIPOS>ATOM
      1 C1         -1.0447    2.6619    0.4041 C.ar      1 <1>        -0.0622
      2 C2         -0.5566    1.3614    0.5309 C.ar      1 <1>        -0.0616
      3 C3         -0.2442    3.6555   -0.1592 C.ar      1 <1>        -0.0616
      4 C4          4.8682    0.3905   -0.7011 C.ar      1 <1>        -0.0588
      5 C5          0.7322    1.0546    0.0945 C.ar      1 <1>        -0.0543
      6 C6          1.0447    3.3487   -0.5957 C.ar      1 <1>        -0.0543
      7 C7          3.5784    0.7139   -0.2802 C.ar      1 <1>        -0.0516
      8 C8          5.4494    1.0829   -1.7634 C.ar      1 <1>        -0.0293
      9 C9          1.5329    2.0482   -0.4689 C.ar      1 <1>        -0.0157
     10 C10         2.8695    1.7295   -0.9218 C.ar      1 <1>         0.0144
     11 C11         4.7405    2.0985   -2.4050 C.ar      1 <1>         0.1019
     12 C12         3.4506    2.4219   -1.9841 C.ar      1 <1>         0.1092
     13 O1          5.3208    2.7660   -3.4413 O.3       1 <1>        -0.3582
     14 O2          2.7693    3.4182   -2.6217 O.3       1 <1>        -0.3577
     15 H1         -2.0488    2.9001    0.7425 H         1 <1>         0.0622
     16 H2         -1.1805    0.5873    0.9680 H         1 <1>         0.0623
     17 H3         -0.6241    4.6680   -0.2595 H         1 <1>         0.0623
     18 H4          5.4204   -0.4003   -0.2016 H         1 <1>         0.0624
     19 H5          1.0982    0.0359    0.2000 H         1 <1>         0.0629
     20 H6          1.6570    4.1335   -1.0335 H         1 <1>         0.0629
     21 H7          3.1401    0.1643    0.5496 H         1 <1>         0.0630
     22 H8          6.4546    0.8260   -2.0863 H         1 <1>         0.0651
     23 H9          6.2122    2.4204   -3.6052 H         1 <1>         0.2183
     24 H10         3.3138    3.7921   -3.3309 H         1 <1>         0.2184
@<TRIPOS>BOND
     1    1    2 ar
     2    1    3 ar
     3    2    5 ar
     4    3    6 ar
     5    4    7 ar
     6    4    8 ar
     7    5    9 ar
     8    6    9 ar
     9    7   10 ar
    10    8   11 ar
    11    9   10 1
    12   10   12 ar
    13   11   12 ar
    14   11   13 1
    15   12   14 1
    16    1   15 1
    17    2   16 1
    18    3   17 1
    19    4   18 1
    20    5   19 1
    21    6   20 1
    22    7   21 1
    23    8   22 1
    24   13   23 1
    25   14   24 1
@<TRIPOS>Similarity
1.2928
@<TRIPOS>ShapeSim
0.7322
@<TRIPOS>PharmSim
0.5605
# END
# Name:		DB08178
# Created and modified by SHAFTS on Sun Nov 24 10:54:01 2013

# 

@<TRIPOS>MOLECULE
DB08178
   29    31     0
SMALL
USER_CHARGE


@<TRIPOS>ATOM
      1 C1          5.1758    1.9248   -2.5109 C.ar      1 <1>        -0.0126
      2 C2          1.1375    3.0865   -0.3645 C.ar      1 <1>        -0.0171
      3 C3          6.0297    0.9501   -2.0126 C.ar      1 <1>         0.0317
      4 C4         -0.1168    3.6581   -0.2996 C.ar      1 <1>         0.0328
      5 C5          2.7614    0.0503    0.8817 C.2       1 <1>         0.0045
      6 C6          3.5911    1.2395   -0.8493 C.ar      1 <1>         0.0559
      7 C7          2.4671    1.0694    0.0016 C.2       1 <1>         0.0276
      8 C8          3.9223    2.0825   -1.9223 C.ar      1 <1>         0.0876
      9 C9          1.2132    1.7665    0.0306 C.ar      1 <1>         0.0777
     10 C10         4.5428    0.3051   -0.4515 C.ar      1 <1>         0.1318
     11 C11        -1.0155    1.7194    0.4756 C.ar      1 <1>         0.2114
     12 C12         3.5148    3.8263   -3.4872 C.3       1 <1>         0.0423
     13 N1          5.7644    0.1117   -0.9838 N.ar      1 <1>        -0.2404
     14 N2         -1.2192    3.0013    0.1172 N.ar      1 <1>        -0.2238
     15 N3          0.1529    1.0499    0.4579 N.ar      1 <1>        -0.2152
     16 N4          4.0228   -0.4055    0.5981 N.pl3     1 <1>        -0.3048
     17 N5         -2.1477    1.0009    0.9184 N.pl3     1 <1>        -0.3273
     18 O1          3.0616    3.0342   -2.3940 O.3       1 <1>        -0.3485
     19 H1          5.4830    2.5495   -3.3434 H         1 <1>         0.0667
     20 H2          1.9972    3.6500   -0.7054 H         1 <1>         0.0662
     21 H3          7.0108    0.8134   -2.4599 H         1 <1>         0.0841
     22 H4         -0.2750    4.6910   -0.5907 H         1 <1>         0.0842
     23 H5          2.1911   -0.3951    1.6858 H         1 <1>         0.0797
     24 H6          2.7381    4.5430   -3.7655 H         1 <1>         0.0535
     25 H7          3.7483    3.1783   -4.3357 H         1 <1>         0.0535
     26 H8          4.4150    4.3670   -3.1855 H         1 <1>         0.0535
     27 H9          4.4977   -1.1503    1.0888 H         1 <1>         0.1537
     28 H10        -3.0248    1.4735    0.9926 H         1 <1>         0.1457
     29 H11        -2.0324    0.0614    1.2383 H         1 <1>         0.1457
@<TRIPOS>BOND
     1    1    3 ar
     2    1    8 ar
     3    2    4 ar
     4    2    9 ar
     5    3   13 ar
     6    4   14 ar
     7    5    7 2
     8    5   16 1
     9    6    7 1
    10    6    8 ar
    11    6   10 ar
    12    7    9 1
    13    8   18 1
    14    9   15 ar
    15   10   13 ar
    16   10   16 1
    17   11   14 ar
    18   11   15 ar
    19   11   17 1
    20   12   18 1
    21    1   19 1
    22    2   20 1
    23    3   21 1
    24    4   22 1
    25    5   23 1
    26   12   24 1
    27   12   25 1
    28   12   26 1
    29   16   27 1
    30   17   28 1
    31   17   29 1
@<TRIPOS>Similarity
1.2915
@<TRIPOS>ShapeSim
0.7928
@<TRIPOS>PharmSim
0.4987
# END
# Name:		DB03509
# Created and modified by SHAFTS on Sun Nov 24 10:54:01 2013

# 

@<TRIPOS>MOLECULE
DB03509
   30    32     0
SMALL
USER_CHARGE


@<TRIPOS>ATOM
      1 C1          6.9069    0.0423   -1.5468 C.ar      1 <1>        -0.0592
      2 C2         -0.1093    1.2620   -0.3207 C.ar      1 <1>        -0.0513
      3 C3          0.9833    3.3741    0.1065 C.ar      1 <1>        -0.0513
      4 C4          6.5398    1.0741   -2.3979 C.ar      1 <1>        -0.0473
      5 C5          6.0129   -0.3951   -0.5712 C.ar      1 <1>        -0.0342
      6 C6         -1.3527    1.8889   -0.2398 C.ar      1 <1>        -0.0428
      7 C7         -0.2600    4.0009    0.1874 C.ar      1 <1>        -0.0428
      8 C8          2.7052    0.3380    0.6096 C.ar      1 <1>         0.0539
      9 C9          1.0588    2.0046   -0.1475 C.ar      1 <1>         0.0018
     10 C10         5.2820    1.6598   -2.2657 C.ar      1 <1>         0.0647
     11 C11         4.7536    0.1833   -0.4308 C.ar      1 <1>         0.0895
     12 C12         4.3813    1.2301   -1.2940 C.ar      1 <1>         0.1019
     13 C13        -1.4281    3.2583    0.0142 C.ar      1 <1>         0.0406
     14 C14         2.3429    1.3569   -0.2305 C.ar      1 <1>         0.0893
     15 C15         4.9311    2.7413   -3.1796 C.2       1 <1>         0.2426
     16 N1          3.9086   -0.2562    0.5183 N.ar      1 <1>        -0.2523
     17 N2          3.1734    1.8110   -1.1863 N.ar      1 <1>        -0.2436
     18 N3          5.8781    3.1171   -4.1249 N.am      1 <1>        -0.3250
     19 O1          3.8339    3.3166   -3.1053 O.2       1 <1>        -0.2720
     20 Cl1        -2.9628    4.0309    0.1154 Cl        1 <1>        -0.0843
     21 H1          7.8836   -0.4226   -1.6389 H         1 <1>         0.0623
     22 H2         -0.0669    0.1937   -0.5192 H         1 <1>         0.0630
     23 H3          1.8849    3.9664    0.2447 H         1 <1>         0.0630
     24 H4          7.2360    1.4155   -3.1591 H         1 <1>         0.0632
     25 H5          6.3138   -1.2057    0.0894 H         1 <1>         0.0646
     26 H6         -2.2552    1.2979   -0.3749 H         1 <1>         0.0638
     27 H7         -0.3038    5.0687    0.3871 H         1 <1>         0.0638
     28 H8          2.0529   -0.0440    1.3863 H         1 <1>         0.0863
     29 H9          6.7712    2.6370   -4.1522 H         1 <1>         0.1458
     30 H10         5.6936    3.8625   -4.7885 H         1 <1>         0.1458
@<TRIPOS>BOND
     1    1    4 ar
     2    1    5 ar
     3    2    6 ar
     4    2    9 ar
     5    3    7 ar
     6    3    9 ar
     7    4   10 ar
     8    5   11 ar
     9    6   13 ar
    10    7   13 ar
    11    8   14 ar
    12    8   16 ar
    13    9   14 1
    14   10   12 ar
    15   10   15 1
    16   11   12 ar
    17   11   16 ar
    18   12   17 ar
    19   13   20 1
    20   14   17 ar
    21   15   18 am
    22   15   19 2
    23    1   21 1
    24    2   22 1
    25    3   23 1
    26    4   24 1
    27    5   25 1
    28    6   26 1
    29    7   27 1
    30    8   28 1
    31   18   29 1
    32   18   30 1
@<TRIPOS>Similarity
1.2905
@<TRIPOS>ShapeSim
0.8055
@<TRIPOS>PharmSim
0.4850
# END
# Name:		DB04608
# Created and modified by SHAFTS on Sun Nov 24 10:54:01 2013

# 

@<TRIPOS>MOLECULE
DB04608
   37    41     0
SMALL
USER_CHARGE


@<TRIPOS>ATOM
      1 C1         -1.2160    3.6006   -0.4656 C.ar      1 <1>        -0.0622
      2 C2          0.0470    4.1548   -0.3563 C.ar      1 <1>        -0.0616
      3 C3         -1.3872    2.2312   -0.3700 C.ar      1 <1>        -0.0616
      4 C4          1.1441    3.3433   -0.1517 C.ar      1 <1>        -0.0543
      5 C5         -0.2970    1.4089   -0.1713 C.ar      1 <1>        -0.0543
      6 C6          5.3913   -3.2728    2.7733 C.ar      1 <1>        -0.0376
      7 C7          6.6666   -3.6152    2.3788 C.ar      1 <1>        -0.0302
      8 C8          6.6227   -1.9275    0.6685 C.ar      1 <1>        -0.0222
      9 C9          2.1246    0.1250    1.1734 C.ar      1 <1>        -0.0314
     10 C10         5.3297   -1.5781    1.0570 C.ar      1 <1>         0.0083
     11 C11         4.3676   -0.5713    0.5794 C.ar      1 <1>         0.0184
     12 C12         0.9779    1.9620   -0.0551 C.ar      1 <1>        -0.0175
     13 C13         2.1518    1.0853    0.1641 C.ar      1 <1>        -0.0031
     14 C14         4.4019    0.3880   -0.4336 C.ar      1 <1>         0.0604
     15 C15         3.2874    1.2220   -0.6434 C.ar      1 <1>         0.0586
     16 C16         4.7081   -2.2526    2.1191 C.ar      1 <1>         0.0385
     17 C17         3.2187   -0.7024    1.3881 C.ar      1 <1>         0.0398
     18 C18         7.2839   -2.9475    1.3264 C.ar      1 <1>         0.0721
     19 C19         5.4037    0.7919   -1.4387 C.2       1 <1>         0.2512
     20 C20         3.6474    2.1043   -1.7672 C.2       1 <1>         0.2511
     21 N1          3.4452   -1.7133    2.3011 N.pl3     1 <1>        -0.3138
     22 N2          4.8910    1.7941   -2.1753 N.am      1 <1>        -0.2475
     23 O1          6.5065    0.3015   -1.5780 O.2       1 <1>        -0.2713
     24 O2          2.9390    2.9679   -2.2457 O.2       1 <1>        -0.2713
     25 O3          8.5429   -3.2952    0.9476 O.3       1 <1>        -0.3609
     26 H1         -2.0716    4.2398   -0.6256 H         1 <1>         0.0622
     27 H2          0.1744    5.2246   -0.4310 H         1 <1>         0.0623
     28 H3         -2.3756    1.8044   -0.4557 H         1 <1>         0.0623
     29 H4          2.1295    3.7771   -0.0662 H         1 <1>         0.0629
     30 H5         -0.4319    0.3399   -0.0972 H         1 <1>         0.0629
     31 H6          4.9212   -3.7978    3.5918 H         1 <1>         0.0643
     32 H7          7.1908   -4.4086    2.8908 H         1 <1>         0.0651
     33 H8          7.1020   -1.4091   -0.1487 H         1 <1>         0.0657
     34 H9          1.2459    0.0232    1.7930 H         1 <1>         0.0649
     35 H10         2.8102   -2.0044    2.9740 H         1 <1>         0.1528
     36 H11         5.3563    2.2347   -2.9034 H         1 <1>         0.1592
     37 H12         9.1512   -2.7536    1.4688 H         1 <1>         0.2182
@<TRIPOS>BOND
     1    1    2 ar
     2    1    3 ar
     3    2    4 ar
     4    3    5 ar
     5    4   12 ar
     6    5   12 ar
     7    6    7 ar
     8    6   16 ar
     9    7   18 ar
    10    8   10 ar
    11    8   18 ar
    12    9   13 ar
    13    9   17 ar
    14   10   11 1
    15   10   16 ar
    16   11   14 ar
    17   11   17 ar
    18   12   13 1
    19   13   15 ar
    20   14   15 ar
    21   14   19 1
    22   15   20 1
    23   16   21 1
    24   17   21 1
    25   18   25 1
    26   19   22 am
    27   19   23 2
    28   20   22 am
    29   20   24 2
    30    1   26 1
    31    2   27 1
    32    3   28 1
    33    4   29 1
    34    5   30 1
    35    6   31 1
    36    7   32 1
    37    8   33 1
    38    9   34 1
    39   21   35 1
    40   22   36 1
    41   25   37 1
@<TRIPOS>Similarity
1.2888
@<TRIPOS>ShapeSim
0.8819
@<TRIPOS>PharmSim
0.4069
# END
# Name:		DB08560
# Created and modified by SHAFTS on Sun Nov 24 10:54:01 2013

# 

@<TRIPOS>MOLECULE
DB08560
   40    43     0
SMALL
USER_CHARGE


@<TRIPOS>ATOM
      1 C1          6.8223    4.9965   -0.7812 C.ar      1 <1>        -0.0575
      2 C2         -0.3223    3.4983    0.2323 C.2       1 <1>        -0.0544
      3 C3          5.6837   -2.0312    0.3802 C.ar      1 <1>        -0.0356
      4 C4          4.4816   -1.4970    2.4067 C.ar      1 <1>        -0.0356
      5 C5          8.1939    4.9875   -0.5277 C.ar      1 <1>        -0.0262
      6 C6          6.3554   -3.0548    1.0484 C.ar      1 <1>        -0.0244
      7 C7          5.1533   -2.5207    3.0750 C.ar      1 <1>        -0.0244
      8 C8          6.2149    3.8884   -1.3719 C.ar      1 <1>        -0.0391
      9 C9          1.0509    3.1185    0.2291 C.2       1 <1>        -0.0455
     10 C10         8.3508    2.7624   -1.4557 C.ar      1 <1>        -0.0034
     11 C11         3.5533    1.3816   -0.9711 C.2       1 <1>         0.0105
     12 C12        -1.1564    2.4260    0.0038 C.2       1 <1>        -0.0241
     13 C13         4.7468   -1.2522    1.0593 C.ar      1 <1>         0.0585
     14 C14         6.0902   -3.2996    2.3957 C.ar      1 <1>         0.1229
     15 C15         8.9581    3.8704   -0.8649 C.ar      1 <1>         0.1246
     16 C16         6.9792    2.7714   -1.7092 C.ar      1 <1>         0.0616
     17 C17         2.5199    1.0884   -0.0613 C.2       1 <1>         0.0994
     18 C18         1.2142    1.7700   -0.0013 C.2       1 <1>         0.0391
     19 C19         4.5563    0.5011   -0.6468 C.2       1 <1>         0.1646
     20 N1          2.8369    0.0989    0.7779 N.2       1 <1>        -0.1738
     21 N2          5.7521    0.4067   -1.2489 N.2       1 <1>        -0.1582
     22 N3          4.0809   -0.2375    0.3967 N.pl3     1 <1>        -0.1736
     23 O1          5.0938    1.9420   -3.2196 O.2       1 <1>        -0.4725
     24 O2          7.2652    0.8002   -3.3059 O.2       1 <1>        -0.4725
     25 F1          6.7351   -4.2827    3.0374 F         1 <1>        -0.2069
     26 F2         10.2753    3.8622   -0.6216 F         1 <1>        -0.2069
     27 S1         -0.2840    0.9684   -0.2130 S.3       1 <1>        -0.0957
     28 S2          6.1936    1.3378   -2.4705 S.o2      1 <1>        -0.1345
     29 H1          6.2278    5.8665   -0.5186 H         1 <1>         0.0624
     30 H2         -0.6801    4.5068    0.3946 H         1 <1>         0.0628
     31 H3          5.9008   -1.8510   -0.6699 H         1 <1>         0.0644
     32 H4          3.7531   -0.8981    2.9479 H         1 <1>         0.0644
     33 H5          8.6669    5.8502   -0.0679 H         1 <1>         0.0653
     34 H6          7.0854   -3.6610    0.5203 H         1 <1>         0.0654
     35 H7          4.9467   -2.7124    4.1237 H         1 <1>         0.0654
     36 H8          5.1454    3.9058   -1.5642 H         1 <1>         0.0642
     37 H9          1.8719    3.8067    0.3891 H         1 <1>         0.0635
     38 H10         8.9565    1.8979   -1.7145 H         1 <1>         0.0673
     39 H11         3.5651    2.1297   -1.7526 H         1 <1>         0.0685
     40 H12        -2.2360    2.4284   -0.0456 H         1 <1>         0.0700
@<TRIPOS>BOND
     1    1    5 ar
     2    1    8 ar
     3    2    9 1
     4    2   12 2
     5    3    6 ar
     6    3   13 ar
     7    4    7 ar
     8    4   13 ar
     9    5   15 ar
    10    6   14 ar
    11    7   14 ar
    12    8   16 ar
    13    9   18 2
    14   10   15 ar
    15   10   16 ar
    16   11   17 1
    17   11   19 2
    18   12   27 1
    19   13   22 1
    20   14   25 1
    21   15   26 1
    22   16   28 1
    23   17   18 1
    24   17   20 2
    25   18   27 1
    26   19   21 1
    27   19   22 1
    28   20   22 1
    29   21   28 1
    30   23   28 2
    31   24   28 2
    32    1   29 1
    33    2   30 1
    34    3   31 1
    35    4   32 1
    36    5   33 1
    37    6   34 1
    38    7   35 1
    39    8   36 1
    40    9   37 1
    41   10   38 1
    42   11   39 1
    43   12   40 1
@<TRIPOS>Similarity
1.2847
@<TRIPOS>ShapeSim
0.8041
@<TRIPOS>PharmSim
0.4807
# END
# Name:		DB07161
# Created and modified by SHAFTS on Sun Nov 24 10:54:01 2013

# 

@<TRIPOS>MOLECULE
DB07161
   27    29     0
SMALL
USER_CHARGE


@<TRIPOS>ATOM
      1 C1          5.9264   -3.3288    2.5221 C.ar      1 <1>        -0.0622
      2 C2          6.1031   -2.0049    2.9243 C.ar      1 <1>        -0.0616
      3 C3          5.1936   -3.6159    1.3705 C.ar      1 <1>        -0.0616
      4 C4          5.5469   -0.9682    2.1750 C.ar      1 <1>        -0.0544
      5 C5          4.6374   -2.5792    0.6212 C.ar      1 <1>        -0.0544
      6 C6          2.9470    0.2681    0.5376 C.ar      1 <1>        -0.0524
      7 C7          2.3576    1.3057   -0.1922 C.ar      1 <1>        -0.0379
      8 C8          4.9829    0.3991   -0.7893 C.ar      1 <1>        -0.0416
      9 C9          4.4046    1.4425   -1.5313 C.ar      1 <1>         0.0394
     10 C10         4.8140   -1.2553    1.0234 C.ar      1 <1>        -0.0184
     11 C11         4.2371   -0.1789    0.2457 C.ar      1 <1>        -0.0175
     12 C12         3.1181    1.8683   -1.2196 C.ar      1 <1>         0.0583
     13 C13         4.7934    2.2648   -2.6106 C.2       1 <1>         0.1423
     14 N1          3.8481    3.1392   -2.9627 N.2       1 <1>        -0.1681
     15 N2          2.8479    2.8764   -2.1052 N.pl3     1 <1>        -0.2360
     16 N3          6.0125    2.1437   -3.1988 N.pl3     1 <1>        -0.3414
     17 H1          6.3610   -4.1357    3.1047 H         1 <1>         0.0622
     18 H2          6.6751   -1.7811    3.8200 H         1 <1>         0.0623
     19 H3          5.0568   -4.6463    1.0560 H         1 <1>         0.0623
     20 H4          5.6938    0.0587    2.5015 H         1 <1>         0.0629
     21 H5          4.0692   -2.8183   -0.2746 H         1 <1>         0.0629
     22 H6          2.3757   -0.1879    1.3443 H         1 <1>         0.0630
     23 H7          1.3559    1.6543    0.0329 H         1 <1>         0.0643
     24 H8          5.9872    0.0520   -1.0172 H         1 <1>         0.0637
     25 H9          2.0001    3.4250   -2.1775 H         1 <1>         0.1755
     26 H10         6.7155    1.4822   -2.8514 H         1 <1>         0.1442
     27 H11         6.3124    2.7727   -3.9518 H         1 <1>         0.1442
@<TRIPOS>BOND
     1    1    2 ar
     2    1    3 ar
     3    2    4 ar
     4    3    5 ar
     5    4   10 ar
     6    5   10 ar
     7    6    7 ar
     8    6   11 ar
     9    7   12 ar
    10    8    9 ar
    11    8   11 ar
    12    9   12 ar
    13    9   13 1
    14   10   11 1
    15   12   15 1
    16   13   14 2
    17   13   16 1
    18   14   15 1
    19    1   17 1
    20    2   18 1
    21    3   19 1
    22    4   20 1
    23    5   21 1
    24    6   22 1
    25    7   23 1
    26    8   24 1
    27   15   25 1
    28   16   26 1
    29   16   27 1
@<TRIPOS>Similarity
1.2809
@<TRIPOS>ShapeSim
0.7707
@<TRIPOS>PharmSim
0.5102
# END
# Name:		DB04669
# Created and modified by SHAFTS on Sun Nov 24 10:54:01 2013

# 

@<TRIPOS>MOLECULE
DB04669
   38    41     0
SMALL
USER_CHARGE


@<TRIPOS>ATOM
      1 C1          6.1037   -3.2978    1.1166 C.ar      1 <1>        -0.0605
      2 C2          5.9059   -2.2201    0.2533 C.ar      1 <1>        -0.0527
      3 C3          5.6558   -3.2261    2.4357 C.ar      1 <1>        -0.0479
      4 C4         -0.3863    3.5072   -0.5128 C.ar      1 <1>        -0.0390
      5 C5         -0.0559    1.4667    0.7169 C.ar      1 <1>        -0.0390
      6 C6          4.8125   -0.9990    2.0284 C.ar      1 <1>        -0.0385
      7 C7          3.9365    0.8672    0.0105 C.ar      1 <1>         0.0046
      8 C8         -1.7069    3.1254   -0.6864 C.ar      1 <1>         0.0271
      9 C9         -1.3913    1.1764    0.4883 C.ar      1 <1>         0.0271
     10 C10         6.0945    2.6387   -3.6038 C.2       1 <1>         0.1026
     11 C11         5.2604   -1.0707    0.7093 C.ar      1 <1>         0.0015
     12 C12         0.4483    2.6565    0.2034 C.ar      1 <1>        -0.0278
     13 C13         5.0103   -2.0767    2.8916 C.ar      1 <1>         0.0182
     14 C14         5.0550    0.0486   -0.1875 C.ar      1 <1>         0.0778
     15 C15         3.7425    1.9346   -0.8476 C.ar      1 <1>         0.1213
     16 C16         5.8518    1.1866   -1.9886 C.ar      1 <1>         0.2502
     17 C17         1.8886    3.0207    0.4208 C.3       1 <1>         0.0351
     18 N1         -2.2327    1.9777   -0.2026 N.ar      1 <1>        -0.2646
     19 N2          6.6710    1.5537   -3.0664 N.2       1 <1>        -0.2027
     20 N3          6.0287    0.1464   -1.1416 N.ar      1 <1>        -0.2110
     21 N4          4.9443    2.9831   -2.9197 N.pl3     1 <1>        -0.2392
     22 N5          4.7795    2.0451   -1.8696 N.ar      1 <1>        -0.2135
     23 N6          2.6791    2.8273   -0.7682 N.pl3     1 <1>        -0.3252
     24 Br1         4.4051   -1.9796    4.6796 Br        1 <1>        -0.0508
     25 H1          6.6064   -4.1927    0.7618 H         1 <1>         0.0623
     26 H2          6.2595   -2.2918   -0.7724 H         1 <1>         0.0630
     27 H3          5.8179   -4.0749    3.0954 H         1 <1>         0.0634
     28 H4         -0.0234    4.4418   -0.9270 H         1 <1>         0.0642
     29 H5          0.5700    0.7829    1.2797 H         1 <1>         0.0642
     30 H6          4.3090   -0.1016    2.3831 H         1 <1>         0.0641
     31 H7          3.2351    0.6732    0.8170 H         1 <1>         0.0682
     32 H8         -2.3985    3.7532   -1.2386 H         1 <1>         0.0839
     33 H9         -1.8330    0.2608    0.8678 H         1 <1>         0.0839
     34 H10         6.4521    3.1965   -4.4565 H         1 <1>         0.1029
     35 H11         1.9804    4.0705    0.7200 H         1 <1>         0.0517
     36 H12         2.3308    2.4152    1.2190 H         1 <1>         0.0517
     37 H13         4.3052    3.7482   -3.0932 H         1 <1>         0.1751
     38 H14         2.4509    3.3673   -1.5928 H         1 <1>         0.1483
@<TRIPOS>BOND
     1    1    2 ar
     2    1    3 ar
     3    2   11 ar
     4    3   13 ar
     5    4    8 ar
     6    4   12 ar
     7    5    9 ar
     8    5   12 ar
     9    6   11 ar
    10    6   13 ar
    11    7   14 ar
    12    7   15 ar
    13    8   18 ar
    14    9   18 ar
    15   10   19 2
    16   10   21 1
    17   11   14 1
    18   12   17 1
    19   13   24 1
    20   14   20 ar
    21   15   22 ar
    22   15   23 1
    23   16   19 1
    24   16   20 ar
    25   16   22 ar
    26   17   23 1
    27   21   22 1
    28    1   25 1
    29    2   26 1
    30    3   27 1
    31    4   28 1
    32    5   29 1
    33    6   30 1
    34    7   31 1
    35    8   32 1
    36    9   33 1
    37   10   34 1
    38   17   35 1
    39   17   36 1
    40   21   37 1
    41   23   38 1
@<TRIPOS>Similarity
1.2799
@<TRIPOS>ShapeSim
0.8443
@<TRIPOS>PharmSim
0.4356
# END
# Name:		DB07229
# Created and modified by SHAFTS on Sun Nov 24 10:54:01 2013

# 

@<TRIPOS>MOLECULE
DB07229
   47    50     0
SMALL
USER_CHARGE


@<TRIPOS>ATOM
      1 C1         -1.3162    2.7670    0.4536 C.ar      1 <1>         0.0000
      2 C2         -1.1371    1.4007    0.3343 C.ar      1 <1>         0.0000
      3 C3         -0.2330    3.6225    0.3623 C.ar      1 <1>         0.0000
      4 C4          0.1250    0.8833    0.1238 C.ar      1 <1>         0.0000
      5 C5          1.0344    3.1157    0.1581 C.ar      1 <1>         0.0000
      6 C6          6.0357   -4.4965    4.4594 C.ar      1 <1>         0.0000
      7 C7          5.3513   -3.3280    4.2945 C.ar      1 <1>         0.0000
      8 C8          6.5603   -4.5641    2.0991 C.ar      1 <1>         0.0000
      9 C9          5.5775   -2.5220    0.7691 C.2       1 <1>         0.0000
     10 C10         3.3863    1.7164   -1.2014 C.ar      1 <1>         0.0000
     11 C11         5.1317    0.1667   -0.6300 C.ar      1 <1>         0.0000
     12 C12         5.8619   -3.3697    1.9268 C.ar      1 <1>         0.0000
     13 C13         1.2200    1.7404    0.0314 C.ar      1 <1>         0.0000
     14 C14         2.5790    1.1902   -0.1948 C.ar      1 <1>         0.0000
     15 C15         4.3335   -0.3685    0.3812 C.ar      1 <1>         0.0000
     16 C16         6.6468   -5.1276    3.3679 C.ar      1 <1>         0.0000
     17 C17         5.2512   -2.7450    3.0336 C.ar      1 <1>         0.0000
     18 C18         4.6560    1.2044   -1.4148 C.ar      1 <1>         0.0000
     19 C19         3.0490    0.1411    0.5967 C.ar      1 <1>         0.0000
     20 C20         4.8417   -1.4754    1.2189 C.2       1 <1>         0.0000
     21 C21         7.3890   -6.3903    3.5659 C.cat     1 <1>         0.0000
     22 C22         4.6827    2.7625   -3.0230 C.3       1 <1>         0.0000
     23 N1          4.6415   -1.6009    2.5745 N.pl3     1 <1>         0.0000
     24 N2          7.4585   -7.2837    2.5802 N.pl3     1 <1>         0.0000
     25 N3          7.9886   -6.6349    4.7301 N.pl3     1 <1>         0.0000
     26 O1          2.2660   -0.3759    1.5792 O.3       1 <1>         0.0000
     27 O2          5.4386    1.7230   -2.3986 O.3       1 <1>         0.0000
     28 H1         -2.3055    3.1676    0.6183 H         1 <1>         0.0000
     29 H2         -1.9865    0.7375    0.4057 H         1 <1>         0.0000
     30 H3         -0.3787    4.6885    0.4554 H         1 <1>         0.0000
     31 H4          0.2636   -0.1837    0.0305 H         1 <1>         0.0000
     32 H5          1.8796    3.7845    0.0873 H         1 <1>         0.0000
     33 H6          6.1071   -4.9399    5.4416 H         1 <1>         0.0000
     34 H7          4.8848   -2.8533    5.1450 H         1 <1>         0.0000
     35 H8          7.0305   -5.0471    1.2552 H         1 <1>         0.0000
     36 H9          5.8934   -2.6960   -0.2489 H         1 <1>         0.0000
     37 H10         3.0215    2.5257   -1.8166 H         1 <1>         0.0000
     38 H11         6.1222   -0.2283   -0.8010 H         1 <1>         0.0000
     39 H12         3.7651    2.3455   -3.4380 H         1 <1>         0.0000
     40 H13         4.4339    3.5246   -2.2844 H         1 <1>         0.0000
     41 H14         5.2724    3.2104   -3.8227 H         1 <1>         0.0000
     42 H15         4.1443   -0.9755    3.1245 H         1 <1>         0.0000
     43 H16         7.9457   -8.1124    2.7101 H         1 <1>         0.0000
     44 H17         7.0219   -7.1056    1.7325 H         1 <1>         0.0000
     45 H18         7.9380   -5.9844    5.4478 H         1 <1>         0.0000
     46 H19         8.4758   -7.4636    4.8601 H         1 <1>         0.0000
     47 H20         1.7542   -1.0929    1.1804 H         1 <1>         0.0000
@<TRIPOS>BOND
     1    1    2 ar
     2    1    3 ar
     3    2    4 ar
     4    3    5 ar
     5    4   13 ar
     6    5   13 ar
     7    6    7 ar
     8    6   16 ar
     9    7   17 ar
    10    8   12 ar
    11    8   16 ar
    12    9   12 1
    13    9   20 2
    14   10   14 ar
    15   10   18 ar
    16   11   15 ar
    17   11   18 ar
    18   12   17 ar
    19   13   14 1
    20   14   19 ar
    21   15   19 ar
    22   15   20 1
    23   16   21 1
    24   17   23 1
    25   18   27 1
    26   19   26 1
    27   20   23 1
    28   21   24 1
    29   21   25 2
    30   22   27 1
    31    1   28 1
    32    2   29 1
    33    3   30 1
    34    4   31 1
    35    5   32 1
    36    6   33 1
    37    7   34 1
    38    8   35 1
    39    9   36 1
    40   10   37 1
    41   11   38 1
    42   22   39 1
    43   22   40 1
    44   22   41 1
    45   23   42 1
    46   24   43 1
    47   24   44 1
    48   25   45 1
    49   25   46 1
    50   26   47 1
@<TRIPOS>Similarity
1.2792
@<TRIPOS>ShapeSim
0.8656
@<TRIPOS>PharmSim
0.4136
# END
# Name:		DB07291
# Created and modified by SHAFTS on Sun Nov 24 10:54:01 2013

# 

@<TRIPOS>MOLECULE
DB07291
   22    23     0
SMALL
USER_CHARGE


@<TRIPOS>ATOM
      1 C1          4.1316    2.2565   -2.2223 C.1       1 <1>         0.1043
      2 C2          5.9029   -2.2237    0.3193 C.ar      1 <1>        -0.0371
      3 C3          4.8337   -1.4980    2.3459 C.ar      1 <1>        -0.0371
      4 C4          6.5228   -3.2435    1.0146 C.ar      1 <1>        -0.0416
      5 C5          5.4511   -2.5230    3.0356 C.ar      1 <1>        -0.0416
      6 C6          2.8770    1.1416   -0.3134 C.2       1 <1>         0.0669
      7 C7          4.0003    1.3089   -1.1567 C.2       1 <1>         0.1094
      8 C8          5.0534   -1.3488    0.9831 C.ar      1 <1>         0.0581
      9 C9          6.2975   -3.3937    2.3717 C.ar      1 <1>         0.0407
     10 C10         4.9516    0.3737   -0.7582 C.2       1 <1>         0.1274
     11 N1          4.2358    3.0081   -3.0676 N.1       1 <1>        -0.1922
     12 N2          3.1386    0.1819    0.5296 N.2       1 <1>        -0.1819
     13 N3          4.4230   -0.3132    0.2797 N.pl3     1 <1>        -0.1788
     14 N4          6.2032    0.1881   -1.3134 N.pl3     1 <1>        -0.3439
     15 Cl1         7.0772   -4.6771    3.2427 Cl        1 <1>        -0.0843
     16 H1          6.0785   -2.1073   -0.7399 H         1 <1>         0.0644
     17 H2          4.1737   -0.8184    2.8646 H         1 <1>         0.0644
     18 H3          7.1836   -3.9242    0.4987 H         1 <1>         0.0639
     19 H4          5.2769   -2.6423    4.0947 H         1 <1>         0.0639
     20 H5          1.9607    1.7113   -0.3595 H         1 <1>         0.0872
     21 H6          6.7964   -0.4910   -0.9559 H         1 <1>         0.1440
     22 H7          6.4885    0.7368   -2.0606 H         1 <1>         0.1440
@<TRIPOS>BOND
     1    1    7 1
     2    1   11 3
     3    2    4 ar
     4    2    8 ar
     5    3    5 ar
     6    3    8 ar
     7    4    9 ar
     8    5    9 ar
     9    6    7 1
    10    6   12 2
    11    7   10 2
    12    8   13 1
    13    9   15 1
    14   10   13 1
    15   10   14 1
    16   12   13 1
    17    2   16 1
    18    3   17 1
    19    4   18 1
    20    5   19 1
    21    6   20 1
    22   14   21 1
    23   14   22 1
@<TRIPOS>Similarity
1.2782
@<TRIPOS>ShapeSim
0.7648
@<TRIPOS>PharmSim
0.5135
# END
# Name:		DB07595
# Created and modified by SHAFTS on Sun Nov 24 10:54:01 2013

# 

@<TRIPOS>MOLECULE
DB07595
   39    42     0
SMALL
USER_CHARGE


@<TRIPOS>ATOM
      1 C1          6.1019   -3.2972    1.1159 C.ar      1 <1>        -0.0605
      2 C2          5.9039   -2.2195    0.2527 C.ar      1 <1>        -0.0527
      3 C3          5.6550   -3.2253    2.4353 C.ar      1 <1>        -0.0479
      4 C4         -0.3828    3.5058   -0.5123 C.ar      1 <1>        -0.0390
      5 C5         -0.0519    1.4644    0.7158 C.ar      1 <1>        -0.0390
      6 C6          6.6623    1.6170   -3.1201 C.2       1 <1>        -0.0020
      7 C7          4.8123   -0.9979    2.0284 C.ar      1 <1>        -0.0385
      8 C8          3.9376    0.8677    0.0100 C.ar      1 <1>         0.0044
      9 C9         -1.7034    3.1238   -0.6859 C.ar      1 <1>         0.0271
     10 C10        -1.3873    1.1740    0.4873 C.ar      1 <1>         0.0271
     11 C11         6.0451    2.7545   -3.6728 C.2       1 <1>         0.0135
     12 C12         5.2592   -1.0699    0.7090 C.ar      1 <1>         0.0014
     13 C13         0.4521    2.6547    0.2031 C.ar      1 <1>        -0.0278
     14 C14         5.0102   -2.0755    2.8916 C.ar      1 <1>         0.0182
     15 C15         5.0537    0.0495   -0.1878 C.ar      1 <1>         0.0762
     16 C16         5.8592    1.1862   -1.9950 C.ar      1 <1>         0.1530
     17 C17         3.7465    1.9336   -0.8482 C.ar      1 <1>         0.1197
     18 C18         1.8923    3.0188    0.4205 C.3       1 <1>         0.0351
     19 N1         -2.2290    1.9758   -0.2029 N.ar      1 <1>        -0.2646
     20 N2          6.0259    0.1474   -1.1410 N.ar      1 <1>        -0.2286
     21 N3          4.9098    3.0162   -2.9211 N.pl3     1 <1>        -0.2584
     22 N4          4.7835    2.0477   -1.8748 N.ar      1 <1>        -0.2312
     23 N5          2.6824    2.8267   -0.7685 N.pl3     1 <1>        -0.3253
     24 Br1         4.4064   -1.9781    4.6801 Br        1 <1>        -0.0508
     25 H1          6.6041   -4.1923    0.7609 H         1 <1>         0.0623
     26 H2          6.2568   -2.2915   -0.7733 H         1 <1>         0.0630
     27 H3          5.8172   -4.0741    3.0950 H         1 <1>         0.0634
     28 H4         -0.0201    4.4408   -0.9258 H         1 <1>         0.0642
     29 H5          0.5743    0.7802    1.2779 H         1 <1>         0.0642
     30 H6          7.5717    1.1584   -3.4817 H         1 <1>         0.0676
     31 H7          4.3094   -0.1003    2.3834 H         1 <1>         0.0641
     32 H8          3.2351    0.6756    0.8160 H         1 <1>         0.0682
     33 H9         -2.3952    3.7520   -1.2376 H         1 <1>         0.0839
     34 H10        -1.8286    0.2581    0.8661 H         1 <1>         0.0839
     35 H11         6.3103    3.3810   -4.5121 H         1 <1>         0.0807
     36 H12         1.9841    4.0685    0.7205 H         1 <1>         0.0517
     37 H13         2.3349    2.4128    1.2182 H         1 <1>         0.0517
     38 H14         4.2399    3.7637   -3.0501 H         1 <1>         0.1732
     39 H15         2.4549    3.3666   -1.5928 H         1 <1>         0.1483
@<TRIPOS>BOND
     1    1    2 ar
     2    1    3 ar
     3    2   12 ar
     4    3   14 ar
     5    4    9 ar
     6    4   13 ar
     7    5   10 ar
     8    5   13 ar
     9    6   11 2
    10    6   16 1
    11    7   12 ar
    12    7   14 ar
    13    8   15 ar
    14    8   17 ar
    15    9   19 ar
    16   10   19 ar
    17   11   21 1
    18   12   15 1
    19   13   18 1
    20   14   24 1
    21   15   20 ar
    22   16   20 ar
    23   16   22 ar
    24   17   22 ar
    25   17   23 1
    26   18   23 1
    27   21   22 1
    28    1   25 1
    29    2   26 1
    30    3   27 1
    31    4   28 1
    32    5   29 1
    33    6   30 1
    34    7   31 1
    35    8   32 1
    36    9   33 1
    37   10   34 1
    38   11   35 1
    39   18   36 1
    40   18   37 1
    41   21   38 1
    42   23   39 1
@<TRIPOS>Similarity
1.2762
@<TRIPOS>ShapeSim
0.8434
@<TRIPOS>PharmSim
0.4328
# END
# Name:		DB07173
# Created and modified by SHAFTS on Sun Nov 24 10:54:01 2013

# 

@<TRIPOS>MOLECULE
DB07173
   32    34     0
SMALL
USER_CHARGE


@<TRIPOS>ATOM
      1 C1          2.8994    0.0867    0.7632 C.2       1 <1>         0.0142
      2 C2          5.8758    1.3138   -2.2642 C.ar      1 <1>         0.1194
      3 C3          3.5521    1.3800   -0.9660 C.ar      1 <1>         0.0698
      4 C4          2.4913    1.1119   -0.0634 C.2       1 <1>         0.0415
      5 C5          4.5807    0.4990   -0.6557 C.ar      1 <1>         0.1398
      6 C6          3.7826    2.2634   -2.0197 C.ar      1 <1>         0.1285
      7 C7          4.7656   -3.0790    2.5879 C.3       1 <1>         0.1101
      8 C8          4.5086   -1.5899    2.4605 C.3       1 <1>         0.1256
      9 C9          4.2986   -3.5634    1.2194 C.3       1 <1>         0.0859
     10 C10         4.9394   -1.3214    1.0230 C.3       1 <1>         0.1575
     11 C11         4.8589   -4.8974    0.7626 C.3       1 <1>        -0.0359
     12 N1          5.7748    0.4114   -1.2672 N.ar      1 <1>        -0.2203
     13 N2          4.9655    2.2250   -2.6756 N.ar      1 <1>        -0.2211
     14 N3          4.1688   -0.2782    0.3941 N.pl3     1 <1>        -0.2613
     15 N4          2.8175    3.2018   -2.4275 N.pl3     1 <1>        -0.3426
     16 O1          4.6973   -2.5367    0.2847 O.3       1 <1>        -0.3511
     17 O2          6.1598   -3.3099    2.7651 O.3       1 <1>        -0.3875
     18 O3          5.2446   -0.8334    3.3995 O.3       1 <1>        -0.3858
     19 I1          0.6543    2.0172    0.0778 I         1 <1>        -0.0420
     20 H1          2.3993   -0.4158    1.5808 H         1 <1>         0.0805
     21 H2          6.8133    1.3091   -2.8098 H         1 <1>         0.1063
     22 H3          4.2300   -3.5361    3.4251 H         1 <1>         0.0657
     23 H4          3.4399   -1.3841    2.6021 H         1 <1>         0.0675
     24 H5          3.2022   -3.6006    1.1955 H         1 <1>         0.0630
     25 H6          5.9929   -1.0416    0.9269 H         1 <1>         0.0853
     26 H7          5.9507   -4.8763    0.7808 H         1 <1>         0.0258
     27 H8          4.5314   -5.1173   -0.2559 H         1 <1>         0.0258
     28 H9          4.5146   -5.6985    1.4204 H         1 <1>         0.0258
     29 H10         1.9201    3.2096   -1.9822 H         1 <1>         0.1442
     30 H11         3.0043    3.7865   -3.2194 H         1 <1>         0.1442
     31 H12         6.2742   -4.2701    2.8412 H         1 <1>         0.2107
     32 H13         5.0246    0.1033    3.2517 H         1 <1>         0.2108
@<TRIPOS>BOND
     1    1    4 2
     2    1   14 1
     3    2   12 ar
     4    2   13 ar
     5    3    4 1
     6    3    5 ar
     7    3    6 ar
     8    4   19 1
     9    5   12 ar
    10    5   14 1
    11    6   13 ar
    12    6   15 1
    13    7    8 1
    14    7    9 1
    15    7   17 1
    16    8   10 1
    17    8   18 1
    18    9   11 1
    19    9   16 1
    20   10   14 1
    21   10   16 1
    22    1   20 1
    23    2   21 1
    24    7   22 1
    25    8   23 1
    26    9   24 1
    27   10   25 1
    28   11   26 1
    29   11   27 1
    30   11   28 1
    31   15   29 1
    32   15   30 1
    33   17   31 1
    34   18   32 1
@<TRIPOS>Similarity
1.2728
@<TRIPOS>ShapeSim
0.8070
@<TRIPOS>PharmSim
0.4658
# END
# Name:		DB08757
# Created and modified by SHAFTS on Sun Nov 24 10:54:01 2013

# 

@<TRIPOS>MOLECULE
DB08757
   25    26     0
SMALL
USER_CHARGE


@<TRIPOS>ATOM
      1 C1          6.0864   -3.4824    1.1573 C.ar      1 <1>        -0.0615
      2 C2          6.1299   -3.4632    2.5400 C.ar      1 <1>        -0.0607
      3 C3          5.4539   -2.4678    0.4690 C.ar      1 <1>        -0.0508
      4 C4          5.5408   -2.4274    3.2431 C.ar      1 <1>        -0.0428
      5 C5          2.9132    0.1304    0.6930 C.2       1 <1>        -0.0278
      6 C6          2.6634    1.1604   -0.2195 C.2       1 <1>        -0.0231
      7 C7          4.8518   -1.4219    1.1710 C.ar      1 <1>         0.0239
      8 C8          4.9046   -1.4049    2.5678 C.ar      1 <1>         0.0504
      9 C9          4.1730   -0.3324    0.4411 C.2       1 <1>         0.0911
     10 C10         3.7900    1.2786   -1.0038 C.2       1 <1>         0.1458
     11 C11         3.9785    2.2312   -2.1008 C.2       1 <1>         0.2801
     12 N1          5.3111    3.1309   -3.8148 N.3       1 <1>        -0.2548
     13 N2          5.1355    2.2428   -2.7919 N.am      1 <1>        -0.2483
     14 O1          3.0901    3.0122   -2.3879 O.2       1 <1>        -0.2681
     15 O2          4.6903    0.3642   -0.5846 O.3       1 <1>        -0.3041
     16 Cl1         4.1663   -0.1055    3.4511 Cl        1 <1>        -0.0835
     17 H1          6.5491   -4.2938    0.6152 H         1 <1>         0.0623
     18 H2          6.6266   -4.2603    3.0733 H         1 <1>         0.0623
     19 H3          5.4213   -2.4844   -0.6103 H         1 <1>         0.0630
     20 H4          5.5788   -2.4185    4.3224 H         1 <1>         0.0638
     21 H5          2.2389   -0.2276    1.4569 H         1 <1>         0.0651
     22 H6          1.7603    1.7475   -0.2968 H         1 <1>         0.0653
     23 H7          5.3250    4.0510   -3.4006 H         1 <1>         0.1411
     24 H8          6.2347    2.9663   -4.1863 H         1 <1>         0.1411
     25 H9          5.8434    1.6204   -2.5631 H         1 <1>         0.1701
@<TRIPOS>BOND
     1    1    2 ar
     2    1    3 ar
     3    2    4 ar
     4    3    7 ar
     5    4    8 ar
     6    5    6 1
     7    5    9 2
     8    6   10 2
     9    7    8 ar
    10    7    9 1
    11    8   16 1
    12    9   15 1
    13   10   11 1
    14   10   15 1
    15   11   13 am
    16   11   14 2
    17   12   13 1
    18    1   17 1
    19    2   18 1
    20    3   19 1
    21    4   20 1
    22    5   21 1
    23    6   22 1
    24   12   23 1
    25   12   24 1
    26   13   25 1
@<TRIPOS>Similarity
1.2656
@<TRIPOS>ShapeSim
0.7725
@<TRIPOS>PharmSim
0.4931
# END
# Name:		DB07837
# Created and modified by SHAFTS on Sun Nov 24 10:54:01 2013

# 

@<TRIPOS>MOLECULE
DB07837
   46    50     0
SMALL
USER_CHARGE


@<TRIPOS>ATOM
      1 C1         -3.2280    4.4550    0.7764 C.ar      1 <1>         0.0000
      2 C2         -2.3967    5.4240    0.2227 C.ar      1 <1>         0.0000
      3 C3         -2.7711    3.1453    0.9258 C.ar      1 <1>         0.0000
      4 C4         -1.1053    5.0872   -0.1837 C.ar      1 <1>         0.0000
      5 C5         -0.9975    1.4751    0.6654 C.ar      1 <1>         0.0000
      6 C6          0.2939    1.1382    0.2590 C.ar      1 <1>         0.0000
      7 C7          5.6693   -2.8231    0.5214 C.ar      1 <1>         0.0000
      8 C8          5.3401   -1.1125    2.1956 C.ar      1 <1>         0.0000
      9 C9          5.6861   -3.7970    1.5198 C.ar      1 <1>         0.0000
     10 C10         5.3569   -2.0865    3.1940 C.ar      1 <1>         0.0000
     11 C11         0.6683    3.4171   -0.4443 C.ar      1 <1>         0.0000
     12 C12         3.1642    0.7376   -0.0708 C.ar      1 <1>         0.0000
     13 C13         3.0759    2.4243   -1.7675 C.ar      1 <1>         0.0000
     14 C14         6.5463   -0.2692   -1.0134 C.2       1 <1>         0.0000
     15 C15        -1.4741    2.7884    0.5224 C.ar      1 <1>         0.0000
     16 C16        -0.6286    3.7739   -0.0408 C.ar      1 <1>         0.0000
     17 C17         4.4597    0.4426   -0.5258 C.ar      1 <1>         0.0000
     18 C18         5.4963   -1.4808    0.8594 C.ar      1 <1>         0.0000
     19 C19         1.1252    2.1074   -0.2948 C.ar      1 <1>         0.0000
     20 C20         2.4643    1.7559   -0.7154 C.ar      1 <1>         0.0000
     21 C21         5.4785   -0.4796   -0.1679 C.2       1 <1>         0.0000
     22 C22         5.5299   -3.4287    2.8561 C.ar      1 <1>         0.0000
     23 C23         4.9505    1.1921   -1.5910 C.ar      1 <1>         0.0000
     24 C24         6.9783   -4.6793    4.4152 C.2       1 <1>         0.0000
     25 C25         5.5466   -4.4710    3.9226 C.3       1 <1>         0.0000
     26 N1          4.3182    2.1834   -2.2472 N.ar      1 <1>         0.0000
     27 N2          6.2154    0.7470   -1.8719 N.pl3     1 <1>         0.0000
     28 O1          7.5163   -3.6674    4.9473 O.co2     1 <1>        -0.5000
     29 O2          7.4502   -5.8356    4.2229 O.co2     1 <1>        -0.5000
     30 H1         -4.2327    4.7180    1.0935 H         1 <1>         0.0000
     31 H2         -2.7532    6.4434    0.1067 H         1 <1>         0.0000
     32 H3         -3.4385    2.4041    1.3604 H         1 <1>         0.0000
     33 H4         -0.4731    5.8612   -0.6137 H         1 <1>         0.0000
     34 H5         -1.6304    0.7018    1.0954 H         1 <1>         0.0000
     35 H6          0.6364    0.1134    0.3820 H         1 <1>         0.0000
     36 H7          5.7931   -3.1267   -0.5154 H         1 <1>         0.0000
     37 H8          5.2043   -0.0703    2.4751 H         1 <1>         0.0000
     38 H9          5.8205   -4.8406    1.2479 H         1 <1>         0.0000
     39 H10         5.2345   -1.7913    4.2328 H         1 <1>         0.0000
     40 H11         1.3243    4.1706   -0.8786 H         1 <1>         0.0000
     41 H12         2.7283    0.1868    0.7577 H         1 <1>         0.0000
     42 H13         2.5549    3.2230   -2.2917 H         1 <1>         0.0000
     43 H14         7.5143   -0.7468   -1.0845 H         1 <1>         0.0000
     44 H15         4.9010   -4.1835    4.7671 H         1 <1>         0.0000
     45 H16         5.1392   -5.4239    3.5506 H         1 <1>         0.0000
     46 H17         6.8128    1.1142   -2.5995 H         1 <1>         0.0000
@<TRIPOS>BOND
     1    1    2 ar
     2    1    3 ar
     3    2    4 ar
     4    3   15 ar
     5    4   16 ar
     6    5    6 ar
     7    5   15 ar
     8    6   19 ar
     9    7    9 ar
    10    7   18 ar
    11    8   10 ar
    12    8   18 ar
    13    9   22 ar
    14   10   22 ar
    15   11   16 ar
    16   11   19 ar
    17   12   17 ar
    18   12   20 ar
    19   13   20 ar
    20   13   26 ar
    21   14   21 2
    22   14   27 1
    23   15   16 ar
    24   17   21 1
    25   17   23 ar
    26   18   21 1
    27   19   20 1
    28   22   25 1
    29   23   26 ar
    30   23   27 1
    31   24   25 1
    32   24   28 1
    33   24   29 2
    34    1   30 1
    35    2   31 1
    36    3   32 1
    37    4   33 1
    38    5   34 1
    39    6   35 1
    40    7   36 1
    41    8   37 1
    42    9   38 1
    43   10   39 1
    44   11   40 1
    45   12   41 1
    46   13   42 1
    47   14   43 1
    48   25   44 1
    49   25   45 1
    50   27   46 1
@<TRIPOS>Similarity
1.2605
@<TRIPOS>ShapeSim
0.8340
@<TRIPOS>PharmSim
0.4265
# END
# Name:		DB04716
# Created and modified by SHAFTS on Sun Nov 24 10:54:01 2013

# 

@<TRIPOS>MOLECULE
DB04716
   39    42     0
SMALL
USER_CHARGE


@<TRIPOS>ATOM
      1 C1          1.5899    0.4819    1.1160 C.ar      1 <1>        -0.0492
      2 C2          0.5092    1.2913    0.9175 C.ar      1 <1>        -0.0256
      3 C3          1.6200    2.4184   -0.8942 C.ar      1 <1>        -0.0176
      4 C4          2.7224    0.6201    0.3086 C.ar      1 <1>         0.0104
      5 C5          2.7383    1.5999   -0.7085 C.ar      1 <1>        -0.0000
      6 C6          3.9285    1.7372   -1.5488 C.ar      1 <1>         0.0546
      7 C7          5.0361    0.8977   -1.3357 C.ar      1 <1>         0.0125
      8 C8          3.8977   -0.2358    0.5004 C.ar      1 <1>         0.0947
      9 C9          5.0153   -0.0753   -0.3145 C.ar      1 <1>         0.0662
     10 C10         0.5181    2.2586   -0.0835 C.ar      1 <1>         0.1234
     11 C11         5.3712   -1.6928    1.1323 C.2       1 <1>         0.1042
     12 C12         6.1763    1.0537   -2.1666 C.2       1 <1>        -0.0382
     13 C13         6.1735    1.9880   -3.1347 C.2       1 <1>        -0.0035
     14 C14         3.9850    2.6976   -2.5871 C.2       1 <1>         0.2481
     15 C15         7.0838   -2.2368    2.8411 C.3       1 <1>        -0.0533
     16 C16         4.9746   -3.5691    2.7042 C.3       1 <1>        -0.0533
     17 C17         6.7004   -3.7743    0.9093 C.3       1 <1>        -0.0533
     18 C18         6.0301   -2.8140    1.8939 C.3       1 <1>         0.0179
     19 N1          4.1739   -1.2323    1.3634 N.2       1 <1>        -0.2347
     20 N2          5.9342   -1.0132    0.1096 N.pl3     1 <1>        -0.3004
     21 N3          5.0957    2.7979   -3.3428 N.am      1 <1>        -0.2879
     22 O1          3.0351    3.4338   -2.7931 O.2       1 <1>        -0.2714
     23 F1         -0.5637    3.0483   -0.2609 F         1 <1>        -0.2069
     24 H1          1.5701   -0.2647    1.8962 H         1 <1>         0.0631
     25 H2         -0.3631    1.1803    1.5445 H         1 <1>         0.0653
     26 H3          1.6204    3.1713   -1.6684 H         1 <1>         0.0660
     27 H4          7.0423    0.4247   -2.0226 H         1 <1>         0.0643
     28 H5          7.0454    2.0993   -3.7624 H         1 <1>         0.0790
     29 H6          6.6062   -1.5527    3.5425 H         1 <1>         0.0240
     30 H7          7.5603   -3.0478    3.3919 H         1 <1>         0.0240
     31 H8          7.8356   -1.6988    2.2638 H         1 <1>         0.0240
     32 H9          4.2239   -3.9803    2.0295 H         1 <1>         0.0240
     33 H10         5.4511   -4.3800    3.2551 H         1 <1>         0.0240
     34 H11         4.4970   -2.8850    3.4056 H         1 <1>         0.0240
     35 H12         7.4523   -3.2363    0.3319 H         1 <1>         0.0240
     36 H13         7.1770   -4.5852    1.4602 H         1 <1>         0.0240
     37 H14         5.9497   -4.1854    0.2345 H         1 <1>         0.0240
     38 H15         6.8198   -1.1579   -0.2586 H         1 <1>         0.1541
     39 H16         5.1296    3.4603   -4.0507 H         1 <1>         0.1554
@<TRIPOS>BOND
     1    1    2 ar
     2    1    4 ar
     3    2   10 ar
     4    3    5 ar
     5    3   10 ar
     6    4    5 ar
     7    4    8 ar
     8    5    6 ar
     9    6    7 ar
    10    6   14 1
    11    7    9 ar
    12    7   12 1
    13    8    9 ar
    14    8   19 1
    15    9   20 1
    16   10   23 1
    17   11   18 1
    18   11   19 2
    19   11   20 1
    20   12   13 2
    21   13   21 1
    22   14   21 am
    23   14   22 2
    24   15   18 1
    25   16   18 1
    26   17   18 1
    27    1   24 1
    28    2   25 1
    29    3   26 1
    30   12   27 1
    31   13   28 1
    32   15   29 1
    33   15   30 1
    34   15   31 1
    35   16   32 1
    36   16   33 1
    37   16   34 1
    38   17   35 1
    39   17   36 1
    40   17   37 1
    41   20   38 1
    42   21   39 1
@<TRIPOS>Similarity
1.2584
@<TRIPOS>ShapeSim
0.8648
@<TRIPOS>PharmSim
0.3937
# END
# Name:		DB03159
# Created and modified by SHAFTS on Sun Nov 24 10:54:01 2013

# 

@<TRIPOS>MOLECULE
DB03159
   43    46     0
SMALL
USER_CHARGE


@<TRIPOS>ATOM
      1 C1         -1.3162    2.7697    0.4510 C.ar      1 <1>         0.0000
      2 C2         -1.1383    1.4031    0.3327 C.ar      1 <1>         0.0000
      3 C3         -0.2321    3.6241    0.3606 C.ar      1 <1>         0.0000
      4 C4          4.6530    1.2025   -1.4110 C.ar      1 <1>         0.0000
      5 C5          0.1235    0.8845    0.1231 C.ar      1 <1>         0.0000
      6 C6          1.0349    3.1162    0.1569 C.ar      1 <1>         0.0000
      7 C7          3.3873    1.7135   -1.1996 C.ar      1 <1>         0.0000
      8 C8          5.1287    0.1685   -0.6290 C.ar      1 <1>         0.0000
      9 C9          6.0415   -4.4979    4.4567 C.ar      1 <1>         0.0000
     10 C10         5.3555   -3.3302    4.2930 C.ar      1 <1>         0.0000
     11 C11         6.5648   -4.5632    2.0961 C.ar      1 <1>         0.0000
     12 C12         5.5790   -2.5211    0.7682 C.2       1 <1>         0.0000
     13 C13         5.8648   -3.3696    1.9250 C.ar      1 <1>         0.0000
     14 C14         1.2193    1.7405    0.0313 C.ar      1 <1>         0.0000
     15 C15         2.5780    1.1890   -0.1935 C.ar      1 <1>         0.0000
     16 C16         4.3323   -0.3688    0.3826 C.ar      1 <1>         0.0000
     17 C17         6.6528   -5.1275    3.3645 C.ar      1 <1>         0.0000
     18 C18         5.2539   -2.7465    3.0326 C.ar      1 <1>         0.0000
     19 C19         3.0471    0.1397    0.5989 C.ar      1 <1>         0.0000
     20 C20         4.8424   -1.4756    1.2192 C.2       1 <1>         0.0000
     21 C21         7.3968   -6.3893    3.5611 C.cat     1 <1>         0.0000
     22 N1          4.6429   -1.6025    2.5747 N.pl3     1 <1>         0.0000
     23 N2          7.4668   -7.2819    2.5747 N.pl3     1 <1>         0.0000
     24 N3          7.9974   -6.6339    4.7248 N.pl3     1 <1>         0.0000
     25 O1          2.2647   -0.3770    1.5809 O.3       1 <1>         0.0000
     26 H1         -2.3054    3.1713    0.6142 H         1 <1>         0.0000
     27 H2         -1.9882    0.7407    0.4041 H         1 <1>         0.0000
     28 H3         -0.3768    4.6903    0.4534 H         1 <1>         0.0000
     29 H4          5.2745    1.6143   -2.1924 H         1 <1>         0.0000
     30 H5          0.2613   -0.1826    0.0303 H         1 <1>         0.0000
     31 H6          1.8808    3.7840    0.0868 H         1 <1>         0.0000
     32 H7          3.0237    2.5225   -1.8158 H         1 <1>         0.0000
     33 H8          6.1196   -0.2251   -0.8009 H         1 <1>         0.0000
     34 H9          6.1140   -4.9420    5.4385 H         1 <1>         0.0000
     35 H10         4.8888   -2.8568    5.1442 H         1 <1>         0.0000
     36 H11         7.0346   -5.0453    1.2515 H         1 <1>         0.0000
     37 H12         5.8943   -2.6942   -0.2501 H         1 <1>         0.0000
     38 H13         4.1453   -0.9781    3.1255 H         1 <1>         0.0000
     39 H14         7.9552   -8.1101    2.7037 H         1 <1>         0.0000
     40 H15         7.0296   -7.1038    1.7274 H         1 <1>         0.0000
     41 H16         7.9464   -5.9839    5.4430 H         1 <1>         0.0000
     42 H17         8.4858   -7.4620    4.8539 H         1 <1>         0.0000
     43 H18         1.7529   -1.0941    1.1821 H         1 <1>         0.0000
@<TRIPOS>BOND
     1    1    2 ar
     2    1    3 ar
     3    2    5 ar
     4    3    6 ar
     5    4    7 ar
     6    4    8 ar
     7    5   14 ar
     8    6   14 ar
     9    7   15 ar
    10    8   16 ar
    11    9   10 ar
    12    9   17 ar
    13   10   18 ar
    14   11   13 ar
    15   11   17 ar
    16   12   13 1
    17   12   20 2
    18   13   18 ar
    19   14   15 1
    20   15   19 ar
    21   16   19 ar
    22   16   20 1
    23   17   21 1
    24   18   22 1
    25   19   25 1
    26   20   22 1
    27   21   23 1
    28   21   24 2
    29    1   26 1
    30    2   27 1
    31    3   28 1
    32    4   29 1
    33    5   30 1
    34    6   31 1
    35    7   32 1
    36    8   33 1
    37    9   34 1
    38   10   35 1
    39   11   36 1
    40   12   37 1
    41   22   38 1
    42   23   39 1
    43   23   40 1
    44   24   41 1
    45   24   42 1
    46   25   43 1
@<TRIPOS>Similarity
1.2577
@<TRIPOS>ShapeSim
0.8247
@<TRIPOS>PharmSim
0.4330
# END
# Name:		DB03623
# Created and modified by SHAFTS on Sun Nov 24 10:54:01 2013

# 

@<TRIPOS>MOLECULE
DB03623
   33    36     0
SMALL
USER_CHARGE


@<TRIPOS>ATOM
      1 C1          6.8351   -1.2858   -0.1252 C.ar      1 <1>        -0.0521
      2 C2          0.1417    0.9933    0.4978 C.ar      1 <1>        -0.0517
      3 C3          0.9207    3.1369   -0.2995 C.ar      1 <1>        -0.0517
      4 C4          6.2900   -0.2483   -0.8802 C.ar      1 <1>        -0.0352
      5 C5         -1.1320    1.5279    0.6908 C.ar      1 <1>        -0.0315
      6 C6         -0.3532    3.6715   -0.1065 C.ar      1 <1>        -0.0315
      7 C7          6.6584   -2.9148    1.6645 C.ar      1 <1>        -0.0359
      8 C8          2.9626    0.2083    0.5958 C.ar      1 <1>        -0.0427
      9 C9          5.9036   -3.4708    2.6813 C.ar      1 <1>         0.0274
     10 C10         4.1465   -2.0605    2.2484 C.ar      1 <1>         0.0353
     11 C11         3.3201    1.7237   -1.1812 C.ar      1 <1>         0.0354
     12 C12         6.1052   -1.8731    0.9095 C.ar      1 <1>        -0.0146
     13 C13         4.2522   -0.3355    0.4023 C.ar      1 <1>         0.0102
     14 C14         4.8033   -1.4069    1.1883 C.ar      1 <1>         0.0094
     15 C15         1.1682    1.7978    0.0027 C.ar      1 <1>        -0.0166
     16 C16         2.4866    1.2445   -0.1973 C.ar      1 <1>         0.0007
     17 C17         5.0149    0.2401   -0.6395 C.ar      1 <1>         0.0709
     18 C18        -1.3795    2.8671    0.3887 C.ar      1 <1>         0.0713
     19 N1          4.6582   -3.0696    2.9938 N.ar      1 <1>        -0.2640
     20 N2          4.5600    1.2444   -1.4119 N.ar      1 <1>        -0.2555
     21 O1         -2.6224    3.3882    0.5766 O.3       1 <1>        -0.3609
     22 H1          7.8407   -1.6287   -0.3607 H         1 <1>         0.0630
     23 H2          0.3191   -0.0523    0.7379 H         1 <1>         0.0630
     24 H3          1.7101    3.7769   -0.6861 H         1 <1>         0.0630
     25 H4          6.8935    0.1830   -1.6774 H         1 <1>         0.0646
     26 H5         -1.9276    0.8963    1.0766 H         1 <1>         0.0650
     27 H6         -0.5402    4.7153   -0.3437 H         1 <1>         0.0650
     28 H7          7.6584   -3.2903    1.4682 H         1 <1>         0.0645
     29 H8          2.3133   -0.1802    1.3776 H         1 <1>         0.0637
     30 H9          6.2973   -4.2796    3.2878 H         1 <1>         0.0840
     31 H10         3.1412   -1.7845    2.5517 H         1 <1>         0.0846
     32 H11         3.0198    2.5320   -1.8415 H         1 <1>         0.0846
     33 H12        -2.6365    4.3250    0.3229 H         1 <1>         0.2182
@<TRIPOS>BOND
     1    1    4 ar
     2    1   12 ar
     3    2    5 ar
     4    2   15 ar
     5    3    6 ar
     6    3   15 ar
     7    4   17 ar
     8    5   18 ar
     9    6   18 ar
    10    7    9 ar
    11    7   12 ar
    12    8   13 ar
    13    8   16 ar
    14    9   19 ar
    15   10   14 ar
    16   10   19 ar
    17   11   16 ar
    18   11   20 ar
    19   12   14 ar
    20   13   14 ar
    21   13   17 ar
    22   15   16 1
    23   17   20 ar
    24   18   21 1
    25    1   22 1
    26    2   23 1
    27    3   24 1
    28    4   25 1
    29    5   26 1
    30    6   27 1
    31    7   28 1
    32    8   29 1
    33    9   30 1
    34   10   31 1
    35   11   32 1
    36   21   33 1
@<TRIPOS>Similarity
1.2563
@<TRIPOS>ShapeSim
0.8432
@<TRIPOS>PharmSim
0.4132
# END
# Name:		DB08383
# Created and modified by SHAFTS on Sun Nov 24 10:54:01 2013

# 

@<TRIPOS>MOLECULE
DB08383
   44    47     0
SMALL
USER_CHARGE


@<TRIPOS>ATOM
      1 C1          6.0133   -3.2333    1.8546 C.2       1 <1>        -0.0543
      2 C2          1.2826    3.1096    0.0847 C.ar      1 <1>        -0.0501
      3 C3          0.0872    1.0152   -0.0622 C.ar      1 <1>        -0.0501
      4 C4          2.5364    2.3246   -2.8157 C.ar      1 <1>        -0.0504
      5 C5          4.9312    2.3924   -2.5036 C.ar      1 <1>        -0.0504
      6 C6          0.0714    3.8012    0.0798 C.ar      1 <1>        -0.0311
      7 C7         -1.1240    1.7070   -0.0672 C.ar      1 <1>        -0.0311
      8 C8          2.6623    3.1189   -3.9553 C.ar      1 <1>        -0.0311
      9 C9          5.0572    3.1868   -3.6432 C.ar      1 <1>        -0.0311
     10 C10         5.2854   -2.5114    0.8651 C.2       1 <1>        -0.0442
     11 C11         6.0835   -2.5486    3.0477 C.2       1 <1>        -0.0240
     12 C12         1.2906    1.7165    0.0136 C.ar      1 <1>         0.0023
     13 C13         3.6708    1.9614   -2.0897 C.ar      1 <1>        -0.0018
     14 C14        -1.1319    3.1001    0.0038 C.ar      1 <1>         0.0746
     15 C15         3.9227    3.5499   -4.3692 C.ar      1 <1>         0.0746
     16 C16         2.5371    1.0038    0.0182 C.2       1 <1>         0.0945
     17 C17         3.5406    1.1405   -0.9118 C.2       1 <1>         0.0656
     18 C18         4.8266   -1.3023    1.3399 C.2       1 <1>         0.0521
     19 C19         4.0712   -0.3364    0.6354 C.2       1 <1>         0.1365
     20 C20        -3.5063    2.9950   -0.0804 C.3       1 <1>         0.0422
     21 C21         2.8449    4.6592   -6.1758 C.3       1 <1>         0.0422
     22 N1          2.8737    0.0832    0.9787 N.2       1 <1>        -0.2296
     23 N2          4.5167    0.2761   -0.5030 N.pl3     1 <1>        -0.2964
     24 O1         -2.3140    3.7746   -0.0008 O.3       1 <1>        -0.3493
     25 O2          4.0456    4.3251   -5.4812 O.3       1 <1>        -0.3493
     26 S1          5.2738   -1.0416    2.9722 S.3       1 <1>        -0.0944
     27 H1          6.4621   -4.2058    1.6994 H         1 <1>         0.0628
     28 H2          2.2123    3.6706    0.1446 H         1 <1>         0.0631
     29 H3          0.0766   -0.0707   -0.1187 H         1 <1>         0.0631
     30 H4          1.5470    1.9965   -2.5059 H         1 <1>         0.0630
     31 H5          5.8251    2.1178   -1.9485 H         1 <1>         0.0630
     32 H6          0.0711    4.8865    0.1354 H         1 <1>         0.0650
     33 H7         -2.0579    1.1546   -0.1273 H         1 <1>         0.0650
     34 H8          1.7750    3.3986   -4.5166 H         1 <1>         0.0650
     35 H9          6.0417    3.5196   -3.9608 H         1 <1>         0.0650
     36 H10         5.1107   -2.8700   -0.1418 H         1 <1>         0.0636
     37 H11         6.5715   -2.8610    3.9599 H         1 <1>         0.0701
     38 H12        -4.3761    3.6565   -0.0753 H         1 <1>         0.0535
     39 H13        -3.5517    2.3093    0.7695 H         1 <1>         0.0535
     40 H14        -3.4938    2.4203   -1.0095 H         1 <1>         0.0535
     41 H15         3.0851    5.2801   -7.0423 H         1 <1>         0.0535
     42 H16         2.1720    5.1975   -5.5036 H         1 <1>         0.0535
     43 H17         2.3613    3.7391   -6.5124 H         1 <1>         0.0535
     44 H18         5.4058    0.1163   -0.9591 H         1 <1>         0.1544
@<TRIPOS>BOND
     1    1   10 1
     2    1   11 2
     3    2    6 ar
     4    2   12 ar
     5    3    7 ar
     6    3   12 ar
     7    4    8 ar
     8    4   13 ar
     9    5    9 ar
    10    5   13 ar
    11    6   14 ar
    12    7   14 ar
    13    8   15 ar
    14    9   15 ar
    15   10   18 2
    16   11   26 1
    17   12   16 1
    18   13   17 1
    19   14   24 1
    20   15   25 1
    21   16   17 2
    22   16   22 1
    23   17   23 1
    24   18   19 1
    25   18   26 1
    26   19   22 2
    27   19   23 1
    28   20   24 1
    29   21   25 1
    30    1   27 1
    31    2   28 1
    32    3   29 1
    33    4   30 1
    34    5   31 1
    35    6   32 1
    36    7   33 1
    37    8   34 1
    38    9   35 1
    39   10   36 1
    40   11   37 1
    41   20   38 1
    42   20   39 1
    43   20   40 1
    44   21   41 1
    45   21   42 1
    46   21   43 1
    47   23   44 1
@<TRIPOS>Similarity
1.2519
@<TRIPOS>ShapeSim
0.8645
@<TRIPOS>PharmSim
0.3874
# END
# Name:		DB08047
# Created and modified by SHAFTS on Sun Nov 24 10:54:01 2013

# 

@<TRIPOS>MOLECULE
DB08047
   37    39     0
SMALL
USER_CHARGE


@<TRIPOS>ATOM
      1 C1          5.0500    2.8137   -2.1000 C.ar      1 <1>        -0.0608
      2 C2          3.8432    2.6043   -1.4962 C.ar      1 <1>        -0.0507
      3 C3          1.1337    2.8408    0.5704 C.ar      1 <1>        -0.0475
      4 C4          6.0326    1.8319   -2.0754 C.ar      1 <1>        -0.0480
      5 C5         -0.0699    3.4749    0.7956 C.ar      1 <1>        -0.0312
      6 C6         -1.2556    1.4927    0.1197 C.ar      1 <1>        -0.0013
      7 C7          3.5931    1.3890   -0.8540 C.ar      1 <1>         0.0262
      8 C8          1.1525    1.5229    0.1162 C.ar      1 <1>         0.0327
      9 C9          5.8120    0.6373   -1.4504 C.ar      1 <1>         0.0792
     10 C10         4.5887    0.3954   -0.8291 C.ar      1 <1>         0.0727
     11 C11        -1.2654    2.8041    0.5712 C.ar      1 <1>         0.0739
     12 C12        -0.0521    0.8500   -0.1152 C.ar      1 <1>         0.0834
     13 C13         2.4442    0.8391   -0.1266 C.2       1 <1>         0.1004
     14 C14         5.0985   -2.8364    2.3602 C.2       1 <1>        -0.1014
     15 C15         5.3774   -1.8947    1.4932 C.2       1 <1>        -0.0725
     16 C16         4.7675   -1.9342    0.1157 C.3       1 <1>         0.0524
     17 C17         6.8894   -0.4160   -1.4328 C.3       1 <1>         0.4179
     18 N1          2.7683   -0.3682    0.2690 N.2       1 <1>        -0.1798
     19 N2          4.0687   -0.6734   -0.1453 N.pl3     1 <1>        -0.2199
     20 O1         -2.4481    3.4346    0.7950 O.3       1 <1>        -0.3608
     21 O2         -0.0407   -0.4344   -0.5573 O.3       1 <1>        -0.3601
     22 F1          8.0587    0.1032   -1.9988 F         1 <1>        -0.1660
     23 F2          7.1424   -0.8023   -0.1122 F         1 <1>        -0.1660
     24 F3          6.4676   -1.5271   -2.1709 F         1 <1>        -0.1660
     25 H1          5.2433    3.7520   -2.5985 H         1 <1>         0.0623
     26 H2          3.0842    3.3722   -1.5194 H         1 <1>         0.0630
     27 H3          2.0615    3.3648    0.7462 H         1 <1>         0.0631
     28 H4          6.9823    2.0153   -2.5559 H         1 <1>         0.0629
     29 H5         -0.0832    4.4958    1.1479 H         1 <1>         0.0650
     30 H6         -2.1871    0.9742   -0.0531 H         1 <1>         0.0678
     31 H7          5.5355   -2.8081    3.3473 H         1 <1>         0.0535
     32 H8          4.4281   -3.6386    2.0892 H         1 <1>         0.0535
     33 H9          6.0443   -1.0901    1.7656 H         1 <1>         0.0587
     34 H10         5.5540   -2.0739   -0.6260 H         1 <1>         0.0535
     35 H11         4.0599   -2.7611    0.0550 H         1 <1>         0.0535
     36 H12        -2.6963    3.8658   -0.0343 H         1 <1>         0.2182
     37 H13        -0.0482   -0.3974   -1.5236 H         1 <1>         0.2182
@<TRIPOS>BOND
     1    1    2 ar
     2    1    4 ar
     3    2    7 ar
     4    3    5 ar
     5    3    8 ar
     6    4    9 ar
     7    5   11 ar
     8    6   11 ar
     9    6   12 ar
    10    7   10 ar
    11    7   13 1
    12    8   12 ar
    13    8   13 1
    14    9   10 ar
    15    9   17 1
    16   10   19 1
    17   11   20 1
    18   12   21 1
    19   13   18 2
    20   14   15 2
    21   15   16 1
    22   16   19 1
    23   17   22 1
    24   17   23 1
    25   17   24 1
    26   18   19 1
    27    1   25 1
    28    2   26 1
    29    3   27 1
    30    4   28 1
    31    5   29 1
    32    6   30 1
    33   14   31 1
    34   14   32 1
    35   15   33 1
    36   16   34 1
    37   16   35 1
    38   20   36 1
    39   21   37 1
@<TRIPOS>Similarity
1.2476
@<TRIPOS>ShapeSim
0.8011
@<TRIPOS>PharmSim
0.4466
# END
# Name:		DB08182
# Created and modified by SHAFTS on Sun Nov 24 10:54:01 2013

# 

@<TRIPOS>MOLECULE
DB08182
   35    37     0
SMALL
USER_CHARGE


@<TRIPOS>ATOM
      1 C1          5.1677    1.9221   -2.5194 C.ar      1 <1>        -0.0126
      2 C2          1.1824    3.1286    0.2612 C.ar      1 <1>        -0.0171
      3 C3          6.0227    0.9455   -2.0263 C.ar      1 <1>         0.0317
      4 C4         -0.0740    3.6992    0.2731 C.ar      1 <1>         0.0328
      5 C5          2.7674    0.0474    0.8831 C.2       1 <1>         0.0045
      6 C6          3.5903    1.2372   -0.8507 C.ar      1 <1>         0.0559
      7 C7          2.4702    1.0679    0.0056 C.2       1 <1>         0.0276
      8 C8          3.9174    2.0809   -1.9244 C.ar      1 <1>         0.0879
      9 C9          1.2175    1.7668    0.0415 C.ar      1 <1>         0.0777
     10 C10         4.5425    0.3010   -0.4586 C.ar      1 <1>         0.1318
     11 C11        -1.0484    1.6832   -0.1187 C.ar      1 <1>         0.2114
     12 C12         4.8386    5.1492   -3.2686 C.3       1 <1>        -0.0632
     13 C13         3.5015    4.8304   -3.9131 C.3       1 <1>        -0.0319
     14 C14         3.1431    3.3588   -3.7747 C.3       1 <1>         0.0531
     15 N1          5.7612    0.1064   -0.9971 N.ar      1 <1>        -0.2404
     16 N2         -1.2149    3.0038    0.0860 N.ar      1 <1>        -0.2238
     17 N3          0.1175    1.0101   -0.1528 N.ar      1 <1>        -0.2152
     18 N4          4.0267   -0.4100    0.5927 N.pl3     1 <1>        -0.3048
     19 N5         -2.2219    0.9232   -0.3175 N.pl3     1 <1>        -0.3273
     20 O1          3.0558    3.0344   -2.3908 O.3       1 <1>        -0.3452
     21 H1          5.4717    2.5472   -3.3526 H         1 <1>         0.0667
     22 H2          2.0737    3.7240    0.4159 H         1 <1>         0.0662
     23 H3          7.0013    0.8079   -2.4786 H         1 <1>         0.0841
     24 H4         -0.2019    4.7637    0.4374 H         1 <1>         0.0842
     25 H5          2.2004   -0.3980    1.6895 H         1 <1>         0.0797
     26 H6          4.8358    4.8817   -2.2070 H         1 <1>         0.0231
     27 H7          5.6398    4.5867   -3.7581 H         1 <1>         0.0231
     28 H8          5.0710    6.2153   -3.3540 H         1 <1>         0.0231
     29 H9          3.5251    5.1051   -4.9745 H         1 <1>         0.0287
     30 H10         2.7140    5.4450   -3.4606 H         1 <1>         0.0287
     31 H11         2.1773    3.1459   -4.2441 H         1 <1>         0.0572
     32 H12         3.9091    2.7253   -4.2332 H         1 <1>         0.0572
     33 H13         4.5029   -1.1560    1.0803 H         1 <1>         0.1537
     34 H14        -3.1106    1.3750   -0.2522 H         1 <1>         0.1457
     35 H15        -2.1467   -0.0672   -0.4258 H         1 <1>         0.1457
@<TRIPOS>BOND
     1    1    3 ar
     2    1    8 ar
     3    2    4 ar
     4    2    9 ar
     5    3   15 ar
     6    4   16 ar
     7    5    7 2
     8    5   18 1
     9    6    7 1
    10    6    8 ar
    11    6   10 ar
    12    7    9 1
    13    8   20 1
    14    9   17 ar
    15   10   15 ar
    16   10   18 1
    17   11   16 ar
    18   11   17 ar
    19   11   19 1
    20   12   13 1
    21   13   14 1
    22   14   20 1
    23    1   21 1
    24    2   22 1
    25    3   23 1
    26    4   24 1
    27    5   25 1
    28   12   26 1
    29   12   27 1
    30   12   28 1
    31   13   29 1
    32   13   30 1
    33   14   31 1
    34   14   32 1
    35   18   33 1
    36   19   34 1
    37   19   35 1
@<TRIPOS>Similarity
1.2470
@<TRIPOS>ShapeSim
0.7719
@<TRIPOS>PharmSim
0.4751
# END
# Name:		DB02052
# Created and modified by SHAFTS on Sun Nov 24 10:54:01 2013

# 

@<TRIPOS>MOLECULE
DB02052
   32    35     0
SMALL
USER_CHARGE


@<TRIPOS>ATOM
      1 C1          4.9325   -2.8753    2.6337 C.ar      1 <1>        -0.0615
      2 C2         -0.5411    3.2569   -0.5054 C.ar      1 <1>        -0.0614
      3 C3          6.2341   -3.2007    2.2072 C.ar      1 <1>        -0.0603
      4 C4         -0.9659    2.4563    0.5724 C.ar      1 <1>        -0.0603
      5 C5          4.2032   -1.8583    2.0084 C.ar      1 <1>        -0.0522
      6 C6          0.7238    3.0855   -1.0707 C.ar      1 <1>        -0.0508
      7 C7          6.8317   -2.5159    1.1474 C.ar      1 <1>        -0.0401
      8 C8         -0.1335    1.4671    1.1082 C.ar      1 <1>        -0.0401
      9 C9          4.8013   -1.1849    0.9603 C.ar      1 <1>         0.0104
     10 C10         1.5260    2.1036   -0.5254 C.ar      1 <1>         0.0258
     11 C11         6.0943   -1.5157    0.5444 C.ar      1 <1>         0.0409
     12 C12         1.1167    1.2989    0.5483 C.ar      1 <1>         0.0400
     13 C13         4.3698   -0.0983    0.0874 C.2       1 <1>         0.0701
     14 C14         2.8892    1.6688   -0.8764 C.2       1 <1>         0.1215
     15 C15         3.2075    0.5575    0.0885 C.2       1 <1>         0.0728
     16 C16         5.4830    0.2003   -0.8749 C.2       1 <1>         0.2499
     17 N1          3.5822    2.1881   -1.8226 N.2       1 <1>        -0.1348
     18 N2          2.1126    0.3961    0.8986 N.pl3     1 <1>        -0.3118
     19 N3          6.4893   -0.7060   -0.5263 N.am      1 <1>        -0.2807
     20 O1          5.4827    1.0455   -1.7507 O.2       1 <1>        -0.2714
     21 O2          2.8277    3.1987   -2.4271 O.3       1 <1>        -0.2667
     22 H1          4.4900   -3.4233    3.4615 H         1 <1>         0.0623
     23 H2         -1.2095    4.0175   -0.9006 H         1 <1>         0.0623
     24 H3          6.7787   -3.9945    2.7118 H         1 <1>         0.0623
     25 H4         -1.9555    2.6115    0.9943 H         1 <1>         0.0623
     26 H5          3.2016   -1.6151    2.3449 H         1 <1>         0.0630
     27 H6          1.0509    3.7001   -1.9008 H         1 <1>         0.0630
     28 H7          7.8340   -2.7654    0.8188 H         1 <1>         0.0642
     29 H8         -0.4695    0.8555    1.9382 H         1 <1>         0.0642
     30 H9          2.0582   -0.2847    1.6377 H         1 <1>         0.1529
     31 H10         7.3885   -0.7683   -0.9893 H         1 <1>         0.1560
     32 H11         3.4362    3.5170   -3.1154 H         1 <1>         0.2482
@<TRIPOS>BOND
     1    1    3 ar
     2    1    5 ar
     3    2    4 ar
     4    2    6 ar
     5    3    7 ar
     6    4    8 ar
     7    5    9 ar
     8    6   10 ar
     9    7   11 ar
    10    8   12 ar
    11    9   11 ar
    12    9   13 1
    13   10   12 ar
    14   10   14 1
    15   11   19 1
    16   12   18 1
    17   13   15 2
    18   13   16 1
    19   14   15 1
    20   14   17 2
    21   15   18 1
    22   16   19 am
    23   16   20 2
    24   17   21 1
    25    1   22 1
    26    2   23 1
    27    3   24 1
    28    4   25 1
    29    5   26 1
    30    6   27 1
    31    7   28 1
    32    8   29 1
    33   18   30 1
    34   19   31 1
    35   21   32 1
@<TRIPOS>Similarity
1.2470
@<TRIPOS>ShapeSim
0.8288
@<TRIPOS>PharmSim
0.4182
# END
# Name:		DB04163
# Created and modified by SHAFTS on Sun Nov 24 10:54:01 2013

# 

@<TRIPOS>MOLECULE
DB04163
   31    33     0
SMALL
USER_CHARGE


@<TRIPOS>ATOM
      1 C1          5.3105   -3.4542    2.8749 C.ar      1 <1>        -0.0622
      2 C2          5.0078   -3.7383    1.5557 C.ar      1 <1>        -0.0611
      3 C3          5.8512   -2.2275    3.2151 C.ar      1 <1>        -0.0611
      4 C4          2.2789    0.6832    0.4508 C.ar      1 <1>        -0.0589
      5 C5          1.9958    1.6378   -0.4830 C.ar      1 <1>        -0.0355
      6 C6          5.2450   -2.7976    0.5731 C.ar      1 <1>        -0.0482
      7 C7          6.0964   -1.2841    2.2369 C.ar      1 <1>        -0.0482
      8 C8          3.5244    0.0716    0.4974 C.ar      1 <1>        -0.0473
      9 C9          4.2479    1.4049   -1.3716 C.ar      1 <1>         0.0542
     10 C10         2.9741    2.0217   -1.4087 C.ar      1 <1>         0.0787
     11 C11         5.7885   -1.5641    0.9111 C.ar      1 <1>         0.0122
     12 C12         4.5154    0.4202   -0.4038 C.ar      1 <1>         0.0251
     13 C13         5.2165    1.8055   -2.3204 C.ar      1 <1>         0.1292
     14 C14         3.6779    3.2954   -3.2023 C.ar      1 <1>         0.2133
     15 N1          2.7376    2.9589   -2.3400 N.ar      1 <1>        -0.2151
     16 N2          4.8866    2.7404   -3.2009 N.ar      1 <1>        -0.1998
     17 N3          6.4734    1.2383   -2.3296 N.pl3     1 <1>        -0.3425
     18 N4          3.3951    4.2655   -4.1466 N.pl3     1 <1>        -0.3273
     19 S1          6.0935   -0.3609   -0.3394 S.3       1 <1>        -0.0892
     20 H1          5.1239   -4.1919    3.6413 H         1 <1>         0.0622
     21 H2          4.5849   -4.6970    1.2937 H         1 <1>         0.0623
     22 H3          6.0862   -2.0089    4.2462 H         1 <1>         0.0623
     23 H4          1.5196    0.3958    1.1630 H         1 <1>         0.0624
     24 H5          1.0209    2.1019   -0.5030 H         1 <1>         0.0645
     25 H6          5.0080   -3.0200   -0.4568 H         1 <1>         0.0634
     26 H7          6.5187   -0.3264    2.5033 H         1 <1>         0.0634
     27 H8          3.7218   -0.6836    1.2437 H         1 <1>         0.0635
     28 H9          6.8788    0.9713   -3.1693 H         1 <1>         0.1442
     29 H10         6.9521    1.1064   -1.4962 H         1 <1>         0.1442
     30 H11         4.0719    4.5279   -4.7900 H         1 <1>         0.1457
     31 H12         2.5199    4.6833   -4.1655 H         1 <1>         0.1457
@<TRIPOS>BOND
     1    1    2 ar
     2    1    3 ar
     3    2    6 ar
     4    3    7 ar
     5    4    5 ar
     6    4    8 ar
     7    5   10 ar
     8    6   11 ar
     9    7   11 ar
    10    8   12 ar
    11    9   10 ar
    12    9   12 ar
    13    9   13 ar
    14   10   15 ar
    15   11   19 1
    16   12   19 1
    17   13   16 ar
    18   13   17 1
    19   14   15 ar
    20   14   16 ar
    21   14   18 1
    22    1   20 1
    23    2   21 1
    24    3   22 1
    25    4   23 1
    26    5   24 1
    27    6   25 1
    28    7   26 1
    29    8   27 1
    30   17   28 1
    31   17   29 1
    32   18   30 1
    33   18   31 1
@<TRIPOS>Similarity
1.2413
@<TRIPOS>ShapeSim
0.7549
@<TRIPOS>PharmSim
0.4864
# END
# Name:		DB03490
# Created and modified by SHAFTS on Sun Nov 24 10:54:01 2013

# 

@<TRIPOS>MOLECULE
DB03490
   29    32     0
SMALL
USER_CHARGE


@<TRIPOS>ATOM
      1 C1         -0.4562    3.5231   -0.8318 C.ar      1 <1>        -0.0616
      2 C2         -1.0860    2.8717    0.2135 C.ar      1 <1>        -0.0619
      3 C3          0.8208    3.1613   -1.2069 C.ar      1 <1>        -0.0524
      4 C4         -0.4371    1.8526    0.8875 C.ar      1 <1>        -0.0580
      5 C5          4.8207   -1.1179    2.1934 C.ar      1 <1>        -0.0346
      6 C6          5.5855   -2.1211    0.1505 C.ar      1 <1>        -0.0346
      7 C7          5.4157   -2.1599    2.8736 C.ar      1 <1>         0.0274
      8 C8          6.1558   -3.1216    0.9096 C.ar      1 <1>         0.0274
      9 C9          1.4817    2.1342   -0.5309 C.ar      1 <1>         0.0056
     10 C10         4.9029   -1.0845    0.7968 C.ar      1 <1>         0.0007
     11 C11         0.8402    1.4842    0.5191 C.ar      1 <1>        -0.0340
     12 C12         3.0352    0.5302    0.2195 C.2       1 <1>         0.0078
     13 C13         2.8346    1.5522   -0.7218 C.2       1 <1>         0.0941
     14 C14         4.2803    0.0132    0.0247 C.2       1 <1>         0.0606
     15 C15         1.7824    0.4340    1.0545 C.3       1 <1>         0.0023
     16 N1          6.0547   -3.1150    2.2252 N.ar      1 <1>        -0.2646
     17 N2          3.9251    1.6468   -1.4597 N.2       1 <1>        -0.1832
     18 N3          4.8479    0.6931   -1.0129 N.pl3     1 <1>        -0.2370
     19 H1         -0.9661    4.3180   -1.3558 H         1 <1>         0.0623
     20 H2         -2.0858    3.1589    0.5037 H         1 <1>         0.0623
     21 H3          1.3094    3.6728   -2.0231 H         1 <1>         0.0630
     22 H4         -0.9311    1.3450    1.7029 H         1 <1>         0.0626
     23 H5          4.2994   -0.3394    2.7307 H         1 <1>         0.0646
     24 H6          5.6718   -2.1331   -0.9260 H         1 <1>         0.0646
     25 H7          5.3579   -2.1943    3.9515 H         1 <1>         0.0840
     26 H8          6.6884   -3.9235    0.4203 H         1 <1>         0.0840
     27 H9          1.3382   -0.5560    0.9513 H         1 <1>         0.0367
     28 H10         2.0127    0.6351    2.1007 H         1 <1>         0.0367
     29 H11         5.7329    0.5401   -1.3793 H         1 <1>         0.1755
@<TRIPOS>BOND
     1    1    2 ar
     2    1    3 ar
     3    2    4 ar
     4    3    9 ar
     5    4   11 ar
     6    5    7 ar
     7    5   10 ar
     8    6    8 ar
     9    6   10 ar
    10    7   16 ar
    11    8   16 ar
    12    9   11 ar
    13    9   13 1
    14   10   14 1
    15   11   15 1
    16   12   13 1
    17   12   14 2
    18   12   15 1
    19   13   17 2
    20   14   18 1
    21   17   18 1
    22    1   19 1
    23    2   20 1
    24    3   21 1
    25    4   22 1
    26    5   23 1
    27    6   24 1
    28    7   25 1
    29    8   26 1
    30   15   27 1
    31   15   28 1
    32   18   29 1
@<TRIPOS>Similarity
1.2333
@<TRIPOS>ShapeSim
0.8345
@<TRIPOS>PharmSim
0.3988
# END
# Name:		DB08191
# Created and modified by SHAFTS on Sun Nov 24 10:54:01 2013

# 

@<TRIPOS>MOLECULE
DB08191
   37    40     0
SMALL
USER_CHARGE


@<TRIPOS>ATOM
      1 C1         -1.4562    2.7869    0.5171 C.ar      1 <1>         0.0000
      2 C2         -1.2665    1.8125   -0.4627 C.ar      1 <1>         0.0000
      3 C3         -0.3550    3.4223    1.0913 C.ar      1 <1>         0.0000
      4 C4          0.0243    1.4733   -0.8685 C.ar      1 <1>         0.0000
      5 C5          0.9357    3.0831    0.6856 C.ar      1 <1>         0.0000
      6 C6          5.6665   -2.8227    0.5212 C.ar      1 <1>         0.0000
      7 C7          5.3394   -1.1113    2.1949 C.ar      1 <1>         0.0000
      8 C8          5.6841   -3.7962    1.5199 C.ar      1 <1>         0.0000
      9 C9          5.3570   -2.0848    3.1937 C.ar      1 <1>         0.0000
     10 C10         3.1624    0.7388   -0.0707 C.ar      1 <1>         0.0000
     11 C11         3.0735    2.4254   -1.7675 C.ar      1 <1>         0.0000
     12 C12         6.5436   -0.2691   -1.0148 C.2       1 <1>         0.0000
     13 C13         4.4574    0.4435   -0.5262 C.ar      1 <1>         0.0000
     14 C14         1.1253    2.1087   -0.2943 C.ar      1 <1>         0.0000
     15 C15         5.4942   -1.4802    0.8586 C.ar      1 <1>         0.0000
     16 C16         2.4623    1.7573   -0.7150 C.ar      1 <1>         0.0000
     17 C17         5.4760   -0.4791   -0.1687 C.2       1 <1>         0.0000
     18 C18         5.5293   -3.4272    2.8562 C.ar      1 <1>         0.0000
     19 C19         4.9479    1.1926   -1.5917 C.ar      1 <1>         0.0000
     20 C20         5.5459   -4.4550    3.9096 C.2       1 <1>         0.0000
     21 N1          4.3156    2.1841   -2.2477 N.ar      1 <1>         0.0000
     22 N2          6.2125    0.7472   -1.8732 N.pl3     1 <1>         0.0000
     23 O1          5.4013   -4.0883    5.1357 O.co2     1 <1>        -0.5000
     24 O2          5.7049   -5.6874    3.5709 O.co2     1 <1>        -0.5000
     25 H1         -2.4613    3.0520    0.8316 H         1 <1>         0.0000
     26 H2         -2.1238    1.3189   -0.9110 H         1 <1>         0.0000
     27 H3         -0.5021    4.1821    1.8532 H         1 <1>         0.0000
     28 H4          0.1556    0.7119   -1.6336 H         1 <1>         0.0000
     29 H5          1.7843    3.5874    1.1416 H         1 <1>         0.0000
     30 H6          5.7885   -3.1263   -0.5159 H         1 <1>         0.0000
     31 H7          5.2037   -0.0691    2.4739 H         1 <1>         0.0000
     32 H8          5.8184   -4.8394    1.2460 H         1 <1>         0.0000
     33 H9          5.2354   -1.7863    4.2317 H         1 <1>         0.0000
     34 H10         2.7266    0.1882    0.7582 H         1 <1>         0.0000
     35 H11         2.5527    3.2241   -2.2913 H         1 <1>         0.0000
     36 H12         7.5114   -0.7471   -1.0863 H         1 <1>         0.0000
     37 H13         6.8097    1.1142   -2.6011 H         1 <1>         0.0000
@<TRIPOS>BOND
     1    1    2 ar
     2    1    3 ar
     3    2    4 ar
     4    3    5 ar
     5    4   14 ar
     6    5   14 ar
     7    6    8 ar
     8    6   15 ar
     9    7    9 ar
    10    7   15 ar
    11    8   18 ar
    12    9   18 ar
    13   10   13 ar
    14   10   16 ar
    15   11   16 ar
    16   11   21 ar
    17   12   17 2
    18   12   22 1
    19   13   17 1
    20   13   19 ar
    21   14   16 1
    22   15   17 1
    23   18   20 1
    24   19   21 ar
    25   19   22 1
    26   20   23 1
    27   20   24 2
    28    1   25 1
    29    2   26 1
    30    3   27 1
    31    4   28 1
    32    5   29 1
    33    6   30 1
    34    7   31 1
    35    8   32 1
    36    9   33 1
    37   10   34 1
    38   11   35 1
    39   12   36 1
    40   22   37 1
@<TRIPOS>Similarity
1.2328
@<TRIPOS>ShapeSim
0.8354
@<TRIPOS>PharmSim
0.3975
# END
# Name:		DB02402
# Created and modified by SHAFTS on Sun Nov 24 10:54:01 2013

# 

@<TRIPOS>MOLECULE
DB02402
   35    37     0
SMALL
USER_CHARGE


@<TRIPOS>ATOM
      1 C1          3.1401   -0.2358    0.9559 C.ar      1 <1>        -0.0574
      2 C2          4.3879   -0.3446    0.3350 C.ar      1 <1>        -0.0353
      3 C3          2.2214    0.7095    0.5136 C.ar      1 <1>        -0.0303
      4 C4          0.2628    3.2642    0.8923 C.ar      1 <1>        -0.0286
      5 C5         -0.6498    1.6531   -0.6599 C.ar      1 <1>        -0.0286
      6 C6         -0.9433    3.2720    1.5931 C.ar      1 <1>        -0.0292
      7 C7         -1.8557    1.6610    0.0410 C.ar      1 <1>        -0.0292
      8 C8          3.8097    1.4287   -1.1682 C.ar      1 <1>         0.0711
      9 C9          4.7460    0.4777   -0.7306 C.ar      1 <1>         0.0802
     10 C10         0.4096    2.4547   -0.2342 C.ar      1 <1>         0.0823
     11 C11        -2.0025    2.4705    1.1675 C.ar      1 <1>         0.0748
     12 C12         2.5530    1.5443   -0.5490 C.ar      1 <1>         0.0949
     13 C13         4.2034    2.2318   -2.2347 C.ar      1 <1>         0.1308
     14 C14         6.2127    1.1954   -2.3398 C.ar      1 <1>         0.2133
     15 C15        -4.2206    1.6349    1.3613 C.3       1 <1>         0.0422
     16 N1          5.9508    0.3583   -1.3156 N.ar      1 <1>        -0.2150
     17 N2          5.4009    2.1392   -2.8430 N.ar      1 <1>        -0.1998
     18 N3          3.3365    3.2209   -2.7547 N.pl3     1 <1>        -0.3425
     19 N4          7.4799    1.0654   -2.9490 N.pl3     1 <1>        -0.3273
     20 O1          1.6049    2.4479   -0.9304 O.3       1 <1>        -0.3096
     21 O2         -3.1793    2.4784    1.8512 O.3       1 <1>        -0.3493
     22 H1          2.8899   -0.8909    1.7852 H         1 <1>         0.0624
     23 H2          5.0889   -1.0931    0.7004 H         1 <1>         0.0645
     24 H3          1.2538    0.7894    1.0013 H         1 <1>         0.0651
     25 H4          1.0835    3.8925    1.2272 H         1 <1>         0.0651
     26 H5         -0.5412    1.0213   -1.5372 H         1 <1>         0.0651
     27 H6         -1.0514    3.9035    2.4706 H         1 <1>         0.0651
     28 H7         -2.6774    1.0348   -0.2954 H         1 <1>         0.0651
     29 H8         -5.1030    1.7370    1.9978 H         1 <1>         0.0535
     30 H9         -3.8787    0.5969    1.3580 H         1 <1>         0.0535
     31 H10        -4.4726    1.9367    0.3419 H         1 <1>         0.0535
     32 H11         2.4167    3.3055   -2.3769 H         1 <1>         0.1442
     33 H12         3.6275    3.7497   -3.5497 H         1 <1>         0.1442
     34 H13         8.1337    0.4084   -2.5760 H         1 <1>         0.1457
     35 H14         7.7345    1.6965   -3.6806 H         1 <1>         0.1457
@<TRIPOS>BOND
     1    1    2 ar
     2    1    3 ar
     3    2    9 ar
     4    3   12 ar
     5    4    6 ar
     6    4   10 ar
     7    5    7 ar
     8    5   10 ar
     9    6   11 ar
    10    7   11 ar
    11    8    9 ar
    12    8   12 ar
    13    8   13 ar
    14    9   16 ar
    15   10   20 1
    16   11   21 1
    17   12   20 1
    18   13   17 ar
    19   13   18 1
    20   14   16 ar
    21   14   17 ar
    22   14   19 1
    23   15   21 1
    24    1   22 1
    25    2   23 1
    26    3   24 1
    27    4   25 1
    28    5   26 1
    29    6   27 1
    30    7   28 1
    31   15   29 1
    32   15   30 1
    33   15   31 1
    34   18   32 1
    35   18   33 1
    36   19   34 1
    37   19   35 1
@<TRIPOS>Similarity
1.2322
@<TRIPOS>ShapeSim
0.7317
@<TRIPOS>PharmSim
0.5006
# END
# Name:		DB07654
# Created and modified by SHAFTS on Sun Nov 24 10:54:01 2013

# 

@<TRIPOS>MOLECULE
DB07654
   45    48     0
SMALL
USER_CHARGE


@<TRIPOS>ATOM
      1 C1          0.0006   -0.3529    2.9401 C.ar      1 <1>        -0.0622
      2 C2          5.9637   -3.3525    2.5251 C.ar      1 <1>        -0.0622
      3 C3          0.5813    0.9150    2.9097 C.ar      1 <1>        -0.0616
      4 C4          0.4537   -1.3483    2.0743 C.ar      1 <1>        -0.0616
      5 C5          5.5834   -2.1609    3.1424 C.ar      1 <1>        -0.0616
      6 C6          5.8041   -3.5064    1.1480 C.ar      1 <1>        -0.0616
      7 C7          1.6150    1.1874    2.0137 C.ar      1 <1>        -0.0542
      8 C8          1.4873   -1.0759    1.1782 C.ar      1 <1>        -0.0542
      9 C9          5.0436   -1.1232    2.3826 C.ar      1 <1>        -0.0523
     10 C10         5.2642   -2.4688    0.3882 C.ar      1 <1>        -0.0523
     11 C11         4.0966    2.8882   -2.8577 C.ar      1 <1>         0.1202
     12 C12         3.2162    1.4266   -0.8164 C.ar      1 <1>         0.0755
     13 C13         2.0680    0.1919    1.1479 C.ar      1 <1>        -0.0148
     14 C14         4.8840   -1.2771    1.0054 C.ar      1 <1>         0.0060
     15 C15         3.1313    0.4720    0.2258 C.2       1 <1>         0.0283
     16 C16         4.3282   -0.2066    0.2219 C.2       1 <1>         0.0999
     17 C17         2.4002    2.4159   -1.3597 C.ar      1 <1>         0.1339
     18 C18         4.4723    1.2633   -1.3919 C.ar      1 <1>         0.1849
     19 C19         0.7673    3.9601   -0.3066 C.3       1 <1>         0.0016
     20 C20         0.1126    1.6069   -0.8381 C.3       1 <1>         0.0358
     21 C21        -1.0723    2.0239   -1.6899 C.3       1 <1>         0.0588
     22 N1          2.8533    3.1560   -2.3978 N.ar      1 <1>        -0.2206
     23 N2          4.9776    1.9652   -2.4216 N.ar      1 <1>        -0.2115
     24 N3          1.1128    2.6584   -0.8473 N.pl3     1 <1>        -0.3159
     25 O1          5.1475    0.2644   -0.7543 O.3       1 <1>        -0.2895
     26 O2         -2.0337    0.9763   -1.7068 O.3       1 <1>        -0.3947
     27 H1         -0.8035   -0.5655    3.6384 H         1 <1>         0.0622
     28 H2          6.3846   -4.1603    3.1167 H         1 <1>         0.0622
     29 H3          0.2297    1.6898    3.5846 H         1 <1>         0.0623
     30 H4          0.0022   -2.3358    2.0989 H         1 <1>         0.0623
     31 H5          5.7075   -2.0413    4.2149 H         1 <1>         0.0623
     32 H6          6.1013   -4.4340    0.6672 H         1 <1>         0.0623
     33 H7          2.0575    2.1808    2.0022 H         1 <1>         0.0629
     34 H8          1.8292   -1.8628    0.5098 H         1 <1>         0.0629
     35 H9          4.7545   -0.1995    2.8781 H         1 <1>         0.0630
     36 H10         5.1453   -2.6047   -0.6842 H         1 <1>         0.0630
     37 H11         4.4291    3.4991   -3.6901 H         1 <1>         0.1064
     38 H12        -0.2688    3.9593    0.0418 H         1 <1>         0.0432
     39 H13         0.8797    4.7303   -1.0746 H         1 <1>         0.0432
     40 H14         1.4213    4.2057    0.5344 H         1 <1>         0.0432
     41 H15        -0.1878    1.4284    0.1993 H         1 <1>         0.0493
     42 H16         0.5697    0.6978   -1.2402 H         1 <1>         0.0493
     43 H17        -0.7489    2.2021   -2.7202 H         1 <1>         0.0580
     44 H18        -1.5471    2.9313   -1.3028 H         1 <1>         0.0580
     45 H19        -2.7708    1.2822   -2.2594 H         1 <1>         0.2101
@<TRIPOS>BOND
     1    1    3 ar
     2    1    4 ar
     3    2    5 ar
     4    2    6 ar
     5    3    7 ar
     6    4    8 ar
     7    5    9 ar
     8    6   10 ar
     9    7   13 ar
    10    8   13 ar
    11    9   14 ar
    12   10   14 ar
    13   11   22 ar
    14   11   23 ar
    15   12   15 1
    16   12   17 ar
    17   12   18 ar
    18   13   15 1
    19   14   16 1
    20   15   16 2
    21   16   25 1
    22   17   22 ar
    23   17   24 1
    24   18   23 ar
    25   18   25 1
    26   19   24 1
    27   20   21 1
    28   20   24 1
    29   21   26 1
    30    1   27 1
    31    2   28 1
    32    3   29 1
    33    4   30 1
    34    5   31 1
    35    6   32 1
    36    7   33 1
    37    8   34 1
    38    9   35 1
    39   10   36 1
    40   11   37 1
    41   19   38 1
    42   19   39 1
    43   19   40 1
    44   20   41 1
    45   20   42 1
    46   21   43 1
    47   21   44 1
    48   26   45 1
@<TRIPOS>Similarity
1.2320
@<TRIPOS>ShapeSim
0.7607
@<TRIPOS>PharmSim
0.4712
# END
# Name:		DB07655
# Created and modified by SHAFTS on Sun Nov 24 10:54:01 2013

# 

@<TRIPOS>MOLECULE
DB07655
   43    46     0
SMALL
USER_CHARGE


@<TRIPOS>ATOM
      1 C1         -1.2195    3.1061    0.0483 C.ar      1 <1>        -0.0622
      2 C2          0.6616   -1.6989    3.9425 C.ar      1 <1>        -0.0622
      3 C3         -0.0388    3.8242    0.2377 C.ar      1 <1>        -0.0616
      4 C4         -1.1702    1.7313   -0.1829 C.ar      1 <1>        -0.0616
      5 C5          0.9508   -0.3349    3.9820 C.ar      1 <1>        -0.0616
      6 C6          1.0907   -2.4719    2.8636 C.ar      1 <1>        -0.0616
      7 C7          1.1912    3.1676    0.1958 C.ar      1 <1>        -0.0543
      8 C8          0.0598    1.0748   -0.2249 C.ar      1 <1>        -0.0543
      9 C9          1.6689    0.2561    2.9425 C.ar      1 <1>        -0.0531
     10 C10         1.8088   -1.8809    1.8241 C.ar      1 <1>        -0.0531
     11 C11         5.9831    1.1393   -2.1439 C.ar      1 <1>         0.1194
     12 C12         3.6136    1.3229   -0.9433 C.ar      1 <1>         0.0649
     13 C13         1.2405    1.7929   -0.0355 C.ar      1 <1>        -0.0156
     14 C14         2.0981   -0.5170    1.8635 C.ar      1 <1>        -0.0035
     15 C15         2.5082    1.1158   -0.0790 C.2       1 <1>         0.0179
     16 C16         2.8436    0.0959    0.7861 C.2       1 <1>         0.0476
     17 C17         4.5946    0.4116   -0.5718 C.ar      1 <1>         0.1350
     18 C18         3.9196    2.1718   -2.0060 C.ar      1 <1>         0.1308
     19 C19         3.3752    4.2754   -3.2323 C.3       1 <1>         0.0330
     20 C20         3.5249    3.8785   -4.6895 C.3       1 <1>         0.0586
     21 N1          5.8080    0.2651   -1.1321 N.ar      1 <1>        -0.2206
     22 N2          5.1254    2.0738   -2.6121 N.ar      1 <1>        -0.2209
     23 N3          4.1118   -0.3246    0.4772 N.pl3     1 <1>        -0.2979
     24 N4          2.9956    3.1313   -2.4593 N.pl3     1 <1>        -0.3265
     25 O1          4.5510    2.9014   -4.8097 O.3       1 <1>        -0.3947
     26 H1         -2.1774    3.6170    0.0820 H         1 <1>         0.0622
     27 H2          0.1029   -2.1592    4.7523 H         1 <1>         0.0622
     28 H3         -0.0769    4.8943    0.4190 H         1 <1>         0.0623
     29 H4         -2.0897    1.1723   -0.3290 H         1 <1>         0.0623
     30 H5          0.6164    0.2668    4.8221 H         1 <1>         0.0623
     31 H6          0.8664   -3.5342    2.8334 H         1 <1>         0.0623
     32 H7          2.1029    3.7414    0.3453 H         1 <1>         0.0629
     33 H8          0.0812    0.0026   -0.4061 H         1 <1>         0.0629
     34 H9          1.8887    1.3200    2.9892 H         1 <1>         0.0629
     35 H10         2.1353   -2.4969    0.9896 H         1 <1>         0.0629
     36 H11         6.9402    1.0865   -2.6519 H         1 <1>         0.1063
     37 H12         4.3149    4.6657   -2.8286 H         1 <1>         0.0490
     38 H13         2.5954    5.0351   -3.1227 H         1 <1>         0.0490
     39 H14         3.8151    4.7483   -5.2870 H         1 <1>         0.0580
     40 H15         2.5948    3.4635   -5.0914 H         1 <1>         0.0580
     41 H16         4.6168   -1.0641    0.9466 H         1 <1>         0.1543
     42 H17         2.0317    2.9886   -2.2174 H         1 <1>         0.1481
     43 H18         4.6137    2.6765   -5.7519 H         1 <1>         0.2101
@<TRIPOS>BOND
     1    1    3 ar
     2    1    4 ar
     3    2    5 ar
     4    2    6 ar
     5    3    7 ar
     6    4    8 ar
     7    5    9 ar
     8    6   10 ar
     9    7   13 ar
    10    8   13 ar
    11    9   14 ar
    12   10   14 ar
    13   11   21 ar
    14   11   22 ar
    15   12   15 1
    16   12   17 ar
    17   12   18 ar
    18   13   15 1
    19   14   16 1
    20   15   16 2
    21   16   23 1
    22   17   21 ar
    23   17   23 1
    24   18   22 ar
    25   18   24 1
    26   19   20 1
    27   19   24 1
    28   20   25 1
    29    1   26 1
    30    2   27 1
    31    3   28 1
    32    4   29 1
    33    5   30 1
    34    6   31 1
    35    7   32 1
    36    8   33 1
    37    9   34 1
    38   10   35 1
    39   11   36 1
    40   19   37 1
    41   19   38 1
    42   20   39 1
    43   20   40 1
    44   23   41 1
    45   24   42 1
    46   25   43 1
@<TRIPOS>Similarity
1.2317
@<TRIPOS>ShapeSim
0.6985
@<TRIPOS>PharmSim
0.5332
# END
# Name:		DB07047
# Created and modified by SHAFTS on Sun Nov 24 10:54:01 2013

# 

@<TRIPOS>MOLECULE
DB07047
   25    26     0
SMALL
USER_CHARGE


@<TRIPOS>ATOM
      1 C1          3.4172    1.5367   -1.0217 C.ar      1 <1>         0.0000
      2 C2         -0.0448    1.1312   -0.0477 C.ar      1 <1>         0.0000
      3 C3          4.6328    0.8884   -1.0645 C.ar      1 <1>         0.0000
      4 C4         -1.2566    1.7899   -0.0103 C.ar      1 <1>         0.0000
      5 C5          2.7037    0.1180    0.7951 C.ar      1 <1>         0.0000
      6 C6         -0.1192    3.9035    0.0209 C.ar      1 <1>         0.0000
      7 C7          2.4483    1.1570   -0.0906 C.ar      1 <1>         0.0000
      8 C8          1.1426    1.8606   -0.0509 C.ar      1 <1>         0.0000
      9 C9          3.9365   -0.5370    0.7586 C.ar      1 <1>         0.0000
     10 C10         4.9036   -0.1473   -0.1815 C.ar      1 <1>         0.0000
     11 C11        -1.2950    3.1735    0.0240 C.ar      1 <1>         0.0000
     12 C12         1.0995    3.2537   -0.0111 C.ar      1 <1>         0.0000
     13 C13         4.2185   -1.6349    1.6976 C.2       1 <1>         0.0000
     14 O1          5.2976   -2.2100    1.6600 O.co2     1 <1>        -0.5000
     15 O2          3.3719   -1.9755    2.5125 O.co2     1 <1>        -0.5000
     16 O3          6.1010   -0.7819   -0.2264 O.3       1 <1>         0.0000
     17 Cl1        -2.8233    3.9957    0.0703 Cl        1 <1>         0.0000
     18 Cl2         2.5739    4.1700   -0.0149 Cl        1 <1>         0.0000
     19 H1          3.2132    2.3424   -1.7114 H         1 <1>         0.0000
     20 H2         -0.0165    0.0518   -0.0748 H         1 <1>         0.0000
     21 H3          5.3771    1.1875   -1.7875 H         1 <1>         0.0000
     22 H4         -2.1771    1.2250   -0.0081 H         1 <1>         0.0000
     23 H5          1.9548   -0.1764    1.5156 H         1 <1>         0.0000
     24 H6         -0.1543    4.9826    0.0474 H         1 <1>         0.0000
     25 H7          6.0029   -1.5207   -0.8425 H         1 <1>         0.0000
@<TRIPOS>BOND
     1    1    3 ar
     2    1    7 ar
     3    2    4 ar
     4    2    8 ar
     5    3   10 ar
     6    4   11 ar
     7    5    7 ar
     8    5    9 ar
     9    6   11 ar
    10    6   12 ar
    11    7    8 1
    12    8   12 ar
    13    9   10 ar
    14    9   13 1
    15   10   16 1
    16   11   17 1
    17   12   18 1
    18   13   14 1
    19   13   15 2
    20    1   19 1
    21    2   20 1
    22    3   21 1
    23    4   22 1
    24    5   23 1
    25    6   24 1
    26   16   25 1
@<TRIPOS>Similarity
1.2286
@<TRIPOS>ShapeSim
0.7896
@<TRIPOS>PharmSim
0.4390
# END
# Name:		DB03865
# Created and modified by SHAFTS on Sun Nov 24 10:54:01 2013

# 

@<TRIPOS>MOLECULE
DB03865
   43    46     0
SMALL
USER_CHARGE


@<TRIPOS>ATOM
      1 C1         -1.3162    2.7700    0.4510 C.ar      1 <1>         0.0000
      2 C2         -1.1384    1.4033    0.3322 C.ar      1 <1>         0.0000
      3 C3         -0.2320    3.6242    0.3604 C.ar      1 <1>         0.0000
      4 C4          4.6529    1.2025   -1.4111 C.ar      1 <1>         0.0000
      5 C5          0.1233    0.8846    0.1229 C.ar      1 <1>         0.0000
      6 C6          1.0351    3.1160    0.1576 C.ar      1 <1>         0.0000
      7 C7          3.3872    1.7136   -1.1995 C.ar      1 <1>         0.0000
      8 C8          5.1286    0.1685   -0.6292 C.ar      1 <1>         0.0000
      9 C9          6.5650   -4.5634    2.0953 C.ar      1 <1>         0.0000
     10 C10         5.5790   -2.5210    0.7681 C.2       1 <1>         0.0000
     11 C11         5.3556   -3.3302    4.2932 C.ar      1 <1>         0.0000
     12 C12         5.8649   -3.3696    1.9251 C.ar      1 <1>         0.0000
     13 C13         1.2193    1.7404    0.0314 C.ar      1 <1>         0.0000
     14 C14         2.5778    1.1888   -0.1935 C.ar      1 <1>         0.0000
     15 C15         4.3323   -0.3687    0.3827 C.ar      1 <1>         0.0000
     16 C16         6.6532   -5.1288    3.3630 C.ar      1 <1>         0.0000
     17 C17         5.2542   -2.7466    3.0326 C.ar      1 <1>         0.0000
     18 C18         3.0472    0.1398    0.5991 C.ar      1 <1>         0.0000
     19 C19         6.0416   -4.4991    4.4569 C.ar      1 <1>         0.0000
     20 C20         4.8425   -1.4757    1.2191 C.2       1 <1>         0.0000
     21 C21         7.3967   -6.3904    3.5585 C.cat     1 <1>         0.0000
     22 N1          4.6431   -1.6027    2.5750 N.pl3     1 <1>         0.0000
     23 N2          7.0668   -7.4738    2.8565 N.pl3     1 <1>         0.0000
     24 N3          8.3973   -6.4449    4.4368 N.pl3     1 <1>         0.0000
     25 O1          2.2647   -0.3771    1.5809 O.3       1 <1>         0.0000
     26 Cl1         6.1579   -5.2133    6.0349 Cl        1 <1>         0.0000
     27 H1         -2.3053    3.1715    0.6146 H         1 <1>         0.0000
     28 H2         -1.9886    0.7410    0.4029 H         1 <1>         0.0000
     29 H3         -0.3767    4.6904    0.4533 H         1 <1>         0.0000
     30 H4          5.2744    1.6143   -2.1926 H         1 <1>         0.0000
     31 H5          0.2609   -0.1825    0.0300 H         1 <1>         0.0000
     32 H6          1.8810    3.7839    0.0875 H         1 <1>         0.0000
     33 H7          3.0238    2.5229   -1.8154 H         1 <1>         0.0000
     34 H8          6.1195   -0.2251   -0.8011 H         1 <1>         0.0000
     35 H9          7.0349   -5.0446    1.2503 H         1 <1>         0.0000
     36 H10         5.8944   -2.6939   -0.2502 H         1 <1>         0.0000
     37 H11         4.8894   -2.8565    5.1443 H         1 <1>         0.0000
     38 H12         4.1453   -0.9785    3.1258 H         1 <1>         0.0000
     39 H13         7.6039   -8.2786    2.9255 H         1 <1>         0.0000
     40 H14         6.2895   -7.4576    2.2764 H         1 <1>         0.0000
     41 H15         8.6374   -5.6562    4.9479 H         1 <1>         0.0000
     42 H16         8.8854   -7.2731    4.5651 H         1 <1>         0.0000
     43 H17         1.7532   -1.0944    1.1820 H         1 <1>         0.0000
@<TRIPOS>BOND
     1    1    2 ar
     2    1    3 ar
     3    2    5 ar
     4    3    6 ar
     5    4    7 ar
     6    4    8 ar
     7    5   13 ar
     8    6   13 ar
     9    7   14 ar
    10    8   15 ar
    11    9   12 ar
    12    9   16 ar
    13   10   12 1
    14   10   20 2
    15   11   17 ar
    16   11   19 ar
    17   12   17 ar
    18   13   14 1
    19   14   18 ar
    20   15   18 ar
    21   15   20 1
    22   16   19 ar
    23   16   21 1
    24   17   22 1
    25   18   25 1
    26   19   26 1
    27   20   22 1
    28   21   23 1
    29   21   24 2
    30    1   27 1
    31    2   28 1
    32    3   29 1
    33    4   30 1
    34    5   31 1
    35    6   32 1
    36    7   33 1
    37    8   34 1
    38    9   35 1
    39   10   36 1
    40   11   37 1
    41   22   38 1
    42   23   39 1
    43   23   40 1
    44   24   41 1
    45   24   42 1
    46   25   43 1
@<TRIPOS>Similarity
1.2282
@<TRIPOS>ShapeSim
0.8107
@<TRIPOS>PharmSim
0.4175
# END
# Name:		DB08232
# Created and modified by SHAFTS on Sun Nov 24 10:54:01 2013

# 

@<TRIPOS>MOLECULE
DB08232
   45    48     0
SMALL
USER_CHARGE


@<TRIPOS>ATOM
      1 C1          5.4154   -2.0970    2.9675 C.ar      1 <1>         0.0000
      2 C2          4.8940   -1.0659    2.2121 C.ar      1 <1>         0.0000
      3 C3         -1.3832    4.4924    0.1018 C.ar      1 <1>         0.0000
      4 C4          5.9861   -3.1928    2.3460 C.ar      1 <1>         0.0000
      5 C5         -2.6992    4.2278    0.4275 C.ar      1 <1>         0.0000
      6 C6          5.1413    0.5360   -1.0220 C.ar      1 <1>         0.0000
      7 C7          3.3522    2.0448   -1.5399 C.ar      1 <1>         0.0000
      8 C8          5.5145   -2.2403    0.2002 C.ar      1 <1>         0.0000
      9 C9          0.1404    1.2498    0.0637 C.2       1 <1>         0.0000
     10 C10         4.9432   -1.1309    0.8211 C.ar      1 <1>         0.0000
     11 C11         4.3842   -0.0262    0.0041 C.ar      1 <1>         0.0000
     12 C12         2.5800    1.4939   -0.5166 C.ar      1 <1>         0.0000
     13 C13         4.6232    1.5643   -1.7853 C.ar      1 <1>         0.0000
     14 C14        -0.9670    2.1175    0.2337 C.ar      1 <1>         0.0000
     15 C15        -0.4970    3.4230    0.0017 C.ar      1 <1>         0.0000
     16 C16         6.0378   -3.2626    0.9653 C.ar      1 <1>         0.0000
     17 C17         3.1002    0.4565    0.2646 C.ar      1 <1>         0.0000
     18 C18         1.2193    2.0086   -0.2551 C.2       1 <1>         0.0000
     19 C19        -3.1027    2.9105    0.6456 C.ar      1 <1>         0.0000
     20 C20         6.2604    3.3132   -2.3487 C.2       1 <1>         0.0000
     21 C21         5.4501    2.1649   -2.8928 C.3       1 <1>         0.0000
     22 N1         -2.2479    1.9094    0.5460 N.ar      1 <1>         0.0000
     23 N2          0.8474    3.3316   -0.2966 N.pl3     1 <1>         0.0000
     24 N3         -4.4277    2.6476    0.9792 N.pl3     1 <1>         0.0000
     25 N4          6.6508   -4.4383    0.3074 N.pl3     1 <1>         0.0000
     26 O1          7.0020    3.9395   -3.0863 O.co2     1 <1>        -0.5000
     27 O2          6.1745    3.6156   -1.1706 O.co2     1 <1>        -0.5000
     28 O3          7.1091   -5.3433    0.9816 O.2       1 <1>         0.0000
     29 O4          6.6967   -4.5009   -0.9081 O.2       1 <1>         0.0000
     30 O5          2.3563   -0.0860    1.2624 O.3       1 <1>         0.0000
     31 H1          5.3778   -2.0478    4.0456 H         1 <1>         0.0000
     32 H2          4.4491   -0.2105    2.6984 H         1 <1>         0.0000
     33 H3         -1.0495    5.5049   -0.0715 H         1 <1>         0.0000
     34 H4          6.3936   -3.9969    2.9409 H         1 <1>         0.0000
     35 H5         -3.4111    5.0354    0.5126 H         1 <1>         0.0000
     36 H6          6.1362    0.1664   -1.2213 H         1 <1>         0.0000
     37 H7          2.9548    2.8488   -2.1416 H         1 <1>         0.0000
     38 H8          5.5551   -2.2959   -0.8776 H         1 <1>         0.0000
     39 H9          0.1279    0.1749    0.1693 H         1 <1>         0.0000
     40 H10         6.1205    1.4069   -3.2978 H         1 <1>         0.0000
     41 H11         4.7917    2.5269   -3.6825 H         1 <1>         0.0000
     42 H12         1.4330    4.0772   -0.5018 H         1 <1>         0.0000
     43 H13        -4.7163    1.7350    1.1364 H         1 <1>         0.0000
     44 H14        -5.0627    3.3769    1.0546 H         1 <1>         0.0000
     45 H15         2.5551    0.4168    2.0642 H         1 <1>         0.0000
@<TRIPOS>BOND
     1    1    2 ar
     2    1    4 ar
     3    2   10 ar
     4    3    5 ar
     5    3   15 ar
     6    4   16 ar
     7    5   19 ar
     8    6   11 ar
     9    6   13 ar
    10    7   12 ar
    11    7   13 ar
    12    8   10 ar
    13    8   16 ar
    14    9   14 1
    15    9   18 2
    16   10   11 1
    17   11   17 ar
    18   12   17 ar
    19   12   18 1
    20   13   21 1
    21   14   15 ar
    22   14   22 ar
    23   15   23 1
    24   16   25 1
    25   17   30 1
    26   18   23 1
    27   19   22 ar
    28   19   24 1
    29   20   21 1
    30   20   26 1
    31   20   27 2
    32   25   28 2
    33   25   29 2
    34    1   31 1
    35    2   32 1
    36    3   33 1
    37    4   34 1
    38    5   35 1
    39    6   36 1
    40    7   37 1
    41    8   38 1
    42    9   39 1
    43   21   40 1
    44   21   41 1
    45   23   42 1
    46   24   43 1
    47   24   44 1
    48   30   45 1
@<TRIPOS>Similarity
1.2257
@<TRIPOS>ShapeSim
0.8606
@<TRIPOS>PharmSim
0.3651
# END
# Name:		DB00800
# Created and modified by SHAFTS on Sun Nov 24 10:54:01 2013

# 

@<TRIPOS>MOLECULE
DB00800
   38    40     0
SMALL
USER_CHARGE


@<TRIPOS>ATOM
      1 C1          4.6847   -2.1680    0.4689 C.ar      1 <1>        -0.0559
      2 C2          5.2471   -1.1916    2.5836 C.ar      1 <1>        -0.0559
      3 C3          5.5835   -3.1914    0.6993 C.ar      1 <1>        -0.0318
      4 C4          6.1434   -2.2156    2.8211 C.ar      1 <1>        -0.0318
      5 C5          5.2881    0.7516   -0.3987 C.ar      1 <1>        -0.0252
      6 C6          4.5146   -1.1704    1.4111 C.ar      1 <1>        -0.0422
      7 C7          3.9334    0.6798   -0.0997 C.ar      1 <1>        -0.0350
      8 C8          3.0180    1.2924   -0.9237 C.ar      1 <1>        -0.0246
      9 C9          6.3159   -3.2177    1.8772 C.ar      1 <1>         0.0713
     10 C10         5.7263    1.4561   -1.5055 C.ar      1 <1>         0.1031
     11 C11         4.8016    2.0890   -2.3299 C.ar      1 <1>         0.1205
     12 C12         3.4519    2.0058   -2.0341 C.ar      1 <1>         0.0767
     13 C13         1.5342    1.2049   -0.6765 C.3       1 <1>        -0.0412
     14 C14         1.2088    1.5657    0.7760 C.3       1 <1>        -0.0895
     15 C15         2.1290   -0.6423    1.0255 C.3       1 <1>        -0.0825
     16 C16         3.5338   -0.0549    1.1570 C.3       1 <1>        -0.0057
     17 N1          1.1619    0.3265    1.5529 N.4       1 <1>         0.3816
     18 O1          7.2005   -4.2237    2.1065 O.3       1 <1>        -0.3609
     19 O2          7.0544    1.5253   -1.7895 O.3       1 <1>        -0.3581
     20 O3          5.2220    2.7950   -3.4140 O.3       1 <1>        -0.3570
     21 Cl1         2.2937    2.7917   -3.0610 Cl        1 <1>        -0.0810
     22 H1          4.1140   -2.1473   -0.4478 H         1 <1>         0.0627
     23 H2          5.1126   -0.4112    3.3180 H         1 <1>         0.0627
     24 H3          5.7158   -3.9705   -0.0367 H         1 <1>         0.0650
     25 H4          6.7124   -2.2339    3.7389 H         1 <1>         0.0650
     26 H5          6.0047    0.2540    0.2380 H         1 <1>         0.0654
     27 H6          1.0174    1.8955   -1.3429 H         1 <1>         0.0297
     28 H7          1.1952    0.1890   -0.8792 H         1 <1>         0.0297
     29 H8          0.2418    2.0665    0.8232 H         1 <1>         0.0057
     30 H9          1.9832    2.2210    1.1748 H         1 <1>         0.0057
     31 H10         1.9125   -0.8404   -0.0243 H         1 <1>         0.0063
     32 H11         2.0656   -1.5692    1.5953 H         1 <1>         0.0063
     33 H12         3.5548    0.6375    1.9985 H         1 <1>         0.0382
     34 H13         0.2337   -0.0656    1.5005 H         1 <1>        -0.0861
     35 H14         1.3844    0.5301    2.5158 H         1 <1>        -0.0861
     36 H15         8.0511   -3.9347    1.7489 H         1 <1>         0.2182
     37 H16         7.2573    0.7737   -2.3630 H         1 <1>         0.2183
     38 H17         5.2493    2.1764   -4.1568 H         1 <1>         0.2184
@<TRIPOS>BOND
     1    1    3 ar
     2    1    6 ar
     3    2    4 ar
     4    2    6 ar
     5    3    9 ar
     6    4    9 ar
     7    5    7 ar
     8    5   10 ar
     9    6   16 1
    10    7    8 ar
    11    7   16 1
    12    8   12 ar
    13    8   13 1
    14    9   18 1
    15   10   11 ar
    16   10   19 1
    17   11   12 ar
    18   11   20 1
    19   12   21 1
    20   13   14 1
    21   14   17 1
    22   15   16 1
    23   15   17 1
    24    1   22 1
    25    2   23 1
    26    3   24 1
    27    4   25 1
    28    5   26 1
    29   13   27 1
    30   13   28 1
    31   14   29 1
    32   14   30 1
    33   15   31 1
    34   15   32 1
    35   16   33 1
    36   17   34 1
    37   17   35 1
    38   18   36 1
    39   19   37 1
    40   20   38 1
@<TRIPOS>Similarity
1.2255
@<TRIPOS>ShapeSim
0.8058
@<TRIPOS>PharmSim
0.4198
# END
# Name:		DB07607
# Created and modified by SHAFTS on Sun Nov 24 10:54:01 2013

# 

@<TRIPOS>MOLECULE
DB07607
   43    46     0
SMALL
USER_CHARGE


@<TRIPOS>ATOM
      1 C1         -1.0884    1.6869    0.1360 C.ar      1 <1>        -0.0605
      2 C2          0.0974    0.9828    0.1541 C.ar      1 <1>        -0.0529
      3 C3          4.3777   -2.2825    2.3413 C.ar      1 <1>        -0.0497
      4 C4          6.2386   -1.8960    0.8531 C.ar      1 <1>        -0.0497
      5 C5          5.0914   -3.2874    2.9613 C.ar      1 <1>        -0.0403
      6 C6          6.9438   -2.8988    1.4856 C.ar      1 <1>        -0.0403
      7 C7         -1.0770    3.0648    0.0082 C.ar      1 <1>        -0.0488
      8 C8          2.6519    2.4386   -2.6145 C.ar      1 <1>        -0.0343
      9 C9          4.9904    2.7187   -2.1478 C.ar      1 <1>        -0.0343
     10 C10         1.3173    3.0555   -0.0722 C.ar      1 <1>        -0.0396
     11 C11         2.7897    3.3667   -3.6250 C.ar      1 <1>         0.0274
     12 C12         5.0397    3.6319   -3.1799 C.ar      1 <1>         0.0274
     13 C13         4.9495   -1.5763    1.2819 C.ar      1 <1>         0.0151
     14 C14         1.3127    1.6649    0.0561 C.ar      1 <1>        -0.0009
     15 C15         3.7733    2.0951   -1.8513 C.ar      1 <1>         0.0052
     16 C16         6.3711   -3.5955    2.5349 C.ar      1 <1>         0.0382
     17 C17         0.1230    3.7468   -0.0956 C.ar      1 <1>         0.0137
     18 C18         3.6736    1.1035   -0.7562 C.2       1 <1>         0.0945
     19 C19         2.5860    0.9185    0.0821 C.2       1 <1>         0.0656
     20 C20         4.1904   -0.4982    0.6128 C.2       1 <1>         0.1298
     21 C21         6.7671   -6.2978    2.3213 C.3       1 <1>         0.0123
     22 N1          3.9578    3.9275   -3.8754 N.ar      1 <1>        -0.2646
     23 N2          4.6214    0.2226   -0.3965 N.2       1 <1>        -0.2302
     24 N3          2.9273   -0.0974    0.9424 N.pl3     1 <1>        -0.2968
     25 O1          6.5979   -4.9212    4.5806 O.2       1 <1>        -0.4917
     26 S1          7.2757   -4.8802    3.3324 S.o       1 <1>        -0.2385
     27 I1          0.1264    5.8329   -0.2881 I         1 <1>        -0.0443
     28 H1         -2.0283    1.1611    0.2170 H         1 <1>         0.0623
     29 H2          0.0868   -0.0925    0.2537 H         1 <1>         0.0629
     30 H3          3.3790   -2.0427    2.6752 H         1 <1>         0.0631
     31 H4          6.6866   -1.3533    0.0338 H         1 <1>         0.0631
     32 H5          4.6504   -3.8344    3.7814 H         1 <1>         0.0642
     33 H6          7.9434   -3.1438    1.1582 H         1 <1>         0.0642
     34 H7         -2.0088    3.6106   -0.0104 H         1 <1>         0.0634
     35 H8          1.6930    1.9833   -2.4154 H         1 <1>         0.0646
     36 H9          5.8797    2.4816   -1.5829 H         1 <1>         0.0646
     37 H10         2.2530    3.5887   -0.1526 H         1 <1>         0.0641
     38 H11         1.9300    3.6381   -4.2198 H         1 <1>         0.0840
     39 H12         5.9753    4.1153   -3.4193 H         1 <1>         0.0840
     40 H13         7.0588   -6.1282    1.2848 H         1 <1>         0.0432
     41 H14         7.2518   -7.2010    2.6920 H         1 <1>         0.0432
     42 H15         5.6851   -6.4161    2.3795 H         1 <1>         0.0432
     43 H16         2.3743   -0.4619    1.6511 H         1 <1>         0.1544
@<TRIPOS>BOND
     1    1    2 ar
     2    1    7 ar
     3    2   14 ar
     4    3    5 ar
     5    3   13 ar
     6    4    6 ar
     7    4   13 ar
     8    5   16 ar
     9    6   16 ar
    10    7   17 ar
    11    8   11 ar
    12    8   15 ar
    13    9   12 ar
    14    9   15 ar
    15   10   14 ar
    16   10   17 ar
    17   11   22 ar
    18   12   22 ar
    19   13   20 1
    20   14   19 1
    21   15   18 1
    22   16   26 1
    23   17   27 1
    24   18   19 2
    25   18   23 1
    26   19   24 1
    27   20   23 2
    28   20   24 1
    29   21   26 1
    30   25   26 2
    31    1   28 1
    32    2   29 1
    33    3   30 1
    34    4   31 1
    35    5   32 1
    36    6   33 1
    37    7   34 1
    38    8   35 1
    39    9   36 1
    40   10   37 1
    41   11   38 1
    42   12   39 1
    43   21   40 1
    44   21   41 1
    45   21   42 1
    46   24   43 1
@<TRIPOS>Similarity
1.2247
@<TRIPOS>ShapeSim
0.8528
@<TRIPOS>PharmSim
0.3718
# END
# Name:		DB07972
# Created and modified by SHAFTS on Sun Nov 24 10:54:01 2013

# 

@<TRIPOS>MOLECULE
DB07972
   30    32     0
SMALL
USER_CHARGE


@<TRIPOS>ATOM
      1 C1          5.9253   -3.4224    1.2285 C.ar      1 <1>        -0.0601
      2 C2          5.9796   -3.4262    2.6104 C.ar      1 <1>        -0.0592
      3 C3          5.6038    0.4008   -1.1315 C.ar      1 <1>        -0.0361
      4 C4          5.2405   -2.4230    0.5658 C.ar      1 <1>        -0.0402
      5 C5          5.7757    1.3019   -2.1599 C.ar      1 <1>        -0.0393
      6 C6          4.6733   -1.4205    2.6752 C.ar      1 <1>        -0.0373
      7 C7          3.5524    2.1620   -1.8170 C.ar      1 <1>        -0.0135
      8 C8          2.6589    0.0297    0.8805 C.2       1 <1>         0.0922
      9 C9          5.3546   -2.4265    3.3325 C.ar      1 <1>        -0.0492
     10 C10         3.3675    1.2517   -0.7736 C.ar      1 <1>         0.0883
     11 C11         4.4049    0.3670   -0.4338 C.ar      1 <1>         0.0646
     12 C12         4.6165   -1.4142    1.2880 C.ar      1 <1>         0.0391
     13 C13         4.7522    2.1828   -2.5035 C.ar      1 <1>         0.0256
     14 C14         5.4171   -2.4338    4.8382 C.3       1 <1>        -0.0397
     15 N1          2.3329    0.9918    0.0674 N.2       1 <1>        -0.2388
     16 N2          3.9263   -0.3953    0.6183 N.pl3     1 <1>        -0.2581
     17 N3          4.9378    3.0896   -3.5527 N.pl3     1 <1>        -0.3582
     18 H1          6.4152   -4.2044    0.6673 H         1 <1>         0.0623
     19 H2          6.5117   -4.2116    3.1267 H         1 <1>         0.0625
     20 H3          6.4008   -0.2794   -0.8698 H         1 <1>         0.0644
     21 H4          5.1983   -2.4205   -0.5134 H         1 <1>         0.0642
     22 H5          6.7096    1.3262   -2.7019 H         1 <1>         0.0643
     23 H6          4.1855   -0.6397    3.2396 H         1 <1>         0.0645
     24 H7          2.7616    2.8466   -2.0860 H         1 <1>         0.0666
     25 H8          2.0180   -0.3732    1.6508 H         1 <1>         0.1020
     26 H9          4.5719   -2.9967    5.2342 H         1 <1>         0.0280
     27 H10         6.3478   -2.9005    5.1609 H         1 <1>         0.0280
     28 H11         5.3769   -1.4094    5.2085 H         1 <1>         0.0280
     29 H12         5.7772    3.1038   -4.0387 H         1 <1>         0.1426
     30 H13         4.2272    3.7040   -3.7941 H         1 <1>         0.1426
@<TRIPOS>BOND
     1    1    2 ar
     2    1    4 ar
     3    2    9 ar
     4    3    5 ar
     5    3   11 ar
     6    4   12 ar
     7    5   13 ar
     8    6    9 ar
     9    6   12 ar
    10    7   10 ar
    11    7   13 ar
    12    8   15 2
    13    8   16 1
    14    9   14 1
    15   10   11 ar
    16   10   15 1
    17   11   16 1
    18   12   16 1
    19   13   17 1
    20    1   18 1
    21    2   19 1
    22    3   20 1
    23    4   21 1
    24    5   22 1
    25    6   23 1
    26    7   24 1
    27    8   25 1
    28   14   26 1
    29   14   27 1
    30   14   28 1
    31   17   29 1
    32   17   30 1
@<TRIPOS>Similarity
1.2231
@<TRIPOS>ShapeSim
0.7962
@<TRIPOS>PharmSim
0.4269
# END
# Name:		DB02656
# Created and modified by SHAFTS on Sun Nov 24 10:54:01 2013

# 

@<TRIPOS>MOLECULE
DB02656
   40    43     0
SMALL
USER_CHARGE


@<TRIPOS>ATOM
      1 C1          6.5489   -3.3056    2.1300 C.ar      1 <1>        -0.0622
      2 C2          6.3032   -3.2270    0.7708 C.ar      1 <1>        -0.0616
      3 C3          5.9332   -2.4255    3.0015 C.ar      1 <1>        -0.0616
      4 C4          1.7611    0.7756    0.7102 C.ar      1 <1>        -0.0607
      5 C5          5.4414   -2.2687    0.2771 C.ar      1 <1>        -0.0543
      6 C6          5.0740   -1.4595    2.5184 C.ar      1 <1>        -0.0543
      7 C7          2.6327   -0.1848    1.1946 C.ar      1 <1>        -0.0517
      8 C8          2.1294    1.5845   -0.3443 C.ar      1 <1>        -0.0483
      9 C9          4.8183   -1.3793    1.1506 C.ar      1 <1>        -0.0157
     10 C10         3.8911   -0.3474    0.6259 C.ar      1 <1>         0.0133
     11 C11         3.3871    1.4349   -0.9267 C.ar      1 <1>         0.0535
     12 C12         4.2780    0.4666   -0.4453 C.ar      1 <1>         0.1026
     13 C13         5.1036    2.0651   -2.5812 C.2       1 <1>         0.0319
     14 C14         3.8147    2.2838   -2.0582 C.2       1 <1>         0.1920
     15 C15         5.8913    1.0923   -2.0426 C.2       1 <1>         0.1443
     16 C16         7.7575   -0.4475   -2.5842 C.3       1 <1>         0.0369
     17 C17         7.9188    2.0026   -3.1415 C.3       1 <1>         0.0369
     18 C18         9.1974   -0.3171   -2.0758 C.3       1 <1>         0.0625
     19 C19         9.3450    1.9256   -2.5859 C.3       1 <1>         0.0625
     20 N1          7.1418    0.8906   -2.5674 N.pl3     1 <1>        -0.3069
     21 O1          3.0809    3.1437   -2.5188 O.2       1 <1>        -0.2889
     22 O2          5.4925    0.3290   -1.0161 O.3       1 <1>        -0.2941
     23 O3          9.8991    0.6410   -2.8669 O.3       1 <1>        -0.3781
     24 H1          7.2237   -4.0573    2.5119 H         1 <1>         0.0622
     25 H2          6.7864   -3.9170    0.0950 H         1 <1>         0.0623
     26 H3          6.1286   -2.4915    4.0616 H         1 <1>         0.0623
     27 H4          0.7867    0.8922    1.1611 H         1 <1>         0.0623
     28 H5          5.2501   -2.2084   -0.7840 H         1 <1>         0.0629
     29 H6          4.5938   -0.7728    3.1997 H         1 <1>         0.0629
     30 H7          2.3332   -0.8121    2.0211 H         1 <1>         0.0630
     31 H8          1.4453    2.3322   -0.7177 H         1 <1>         0.0631
     32 H9          5.4630    2.6594   -3.4083 H         1 <1>         0.0706
     33 H10         7.1969   -1.1185   -1.9335 H         1 <1>         0.0493
     34 H11         7.7605   -0.8382   -3.6017 H         1 <1>         0.0493
     35 H12         7.9416    1.9131   -4.2276 H         1 <1>         0.0493
     36 H13         7.4649    2.9527   -2.8596 H         1 <1>         0.0493
     37 H14         9.1870    0.0086   -1.0356 H         1 <1>         0.0583
     38 H15         9.6967   -1.2832   -2.1482 H         1 <1>         0.0583
     39 H16         9.3235    2.0839   -1.5077 H         1 <1>         0.0583
     40 H17         9.9586    2.6957   -3.0534 H         1 <1>         0.0583
@<TRIPOS>BOND
     1    1    2 ar
     2    1    3 ar
     3    2    5 ar
     4    3    6 ar
     5    4    7 ar
     6    4    8 ar
     7    5    9 ar
     8    6    9 ar
     9    7   10 ar
    10    8   11 ar
    11    9   10 1
    12   10   12 ar
    13   11   12 ar
    14   11   14 1
    15   12   22 1
    16   13   14 1
    17   13   15 2
    18   14   21 2
    19   15   20 1
    20   15   22 1
    21   16   18 1
    22   16   20 1
    23   17   19 1
    24   17   20 1
    25   18   23 1
    26   19   23 1
    27    1   24 1
    28    2   25 1
    29    3   26 1
    30    4   27 1
    31    5   28 1
    32    6   29 1
    33    7   30 1
    34    8   31 1
    35   13   32 1
    36   16   33 1
    37   16   34 1
    38   17   35 1
    39   17   36 1
    40   18   37 1
    41   18   38 1
    42   19   39 1
    43   19   40 1
@<TRIPOS>Similarity
1.2154
@<TRIPOS>ShapeSim
0.7495
@<TRIPOS>PharmSim
0.4659
# END
# Name:		DB00714
# Created and modified by SHAFTS on Sun Nov 24 10:54:01 2013

# 

@<TRIPOS>MOLECULE
DB00714
   38    41     0
SMALL
USER_CHARGE


@<TRIPOS>ATOM
      1 C1         -0.3726    3.6167   -0.1120 C.ar      1 <1>        -0.0613
      2 C2          0.8754    3.3031   -0.6514 C.ar      1 <1>        -0.0540
      3 C3         -1.0933    2.6554    0.5874 C.ar      1 <1>        -0.0588
      4 C4          4.7179    0.1831   -0.9465 C.ar      1 <1>        -0.0557
      5 C5          5.3533    0.9406   -1.9254 C.ar      1 <1>        -0.0291
      6 C6          1.4272    2.0177   -0.5127 C.ar      1 <1>        -0.0135
      7 C7          2.7683    1.6611   -1.0337 C.ar      1 <1>         0.0178
      8 C8          3.4283    0.5250   -0.5116 C.ar      1 <1>        -0.0386
      9 C9         -0.5810    1.3631    0.7427 C.ar      1 <1>        -0.0476
     10 C10         0.6776    1.0456    0.1974 C.ar      1 <1>        -0.0500
     11 C11         4.7075    2.0444   -2.4706 C.ar      1 <1>         0.1019
     12 C12         3.4299    2.4013   -2.0296 C.ar      1 <1>         0.1095
     13 C13         2.7526   -0.3084    0.5564 C.3       1 <1>        -0.0351
     14 C14        -1.3483    0.3658    1.5680 C.3       1 <1>        -0.0424
     15 C15        -0.9420   -1.0754    1.3070 C.3       1 <1>        -0.0864
     16 C16         1.2348   -0.3659    0.3180 C.3       1 <1>        -0.0477
     17 C17         0.9743   -2.6442    1.4258 C.3       1 <1>        -0.1026
     18 N1          0.5627   -1.1933    1.4146 N.4       1 <1>         0.3849
     19 O1          5.3348    2.7622   -3.4456 O.3       1 <1>        -0.3582
     20 O2          2.8438    3.4434   -2.6917 O.3       1 <1>        -0.3576
     21 H1         -0.7706    4.6222   -0.2157 H         1 <1>         0.0623
     22 H2          1.4072    4.1235   -1.1192 H         1 <1>         0.0629
     23 H3         -2.0538    2.9223    1.0214 H         1 <1>         0.0625
     24 H4          5.2297   -0.6795   -0.5277 H         1 <1>         0.0627
     25 H5          6.3475    0.6606   -2.2622 H         1 <1>         0.0651
     26 H6          3.1787   -1.3167    0.5321 H         1 <1>         0.0303
     27 H7          2.9825    0.1298    1.5363 H         1 <1>         0.0303
     28 H8         -1.1885    0.6058    2.6270 H         1 <1>         0.0297
     29 H9         -2.4217    0.4651    1.3675 H         1 <1>         0.0297
     30 H10        -1.3893   -1.7366    2.0568 H         1 <1>         0.0062
     31 H11        -1.2288   -1.4142    0.3046 H         1 <1>         0.0062
     32 H12         1.0187   -0.8874   -0.6254 H         1 <1>         0.0148
     33 H13         0.6886   -3.0798    0.4666 H         1 <1>         0.0023
     34 H14         2.0560   -2.6836    1.5683 H         1 <1>         0.0023
     35 H15         0.4519   -3.1333    2.2501 H         1 <1>         0.0023
     36 H16         0.8385   -0.7977    2.3242 H         1 <1>        -0.0816
     37 H17         6.2039    2.3771   -3.6368 H         1 <1>         0.2183
     38 H18         3.4642    3.8175   -3.3346 H         1 <1>         0.2184
@<TRIPOS>BOND
     1    1    2 ar
     2    1    3 ar
     3    2    6 ar
     4    3    9 ar
     5    4    5 ar
     6    4    8 ar
     7    5   11 ar
     8    6    7 1
     9    6   10 ar
    10    7    8 ar
    11    7   12 ar
    12    8   13 1
    13    9   10 ar
    14    9   14 1
    15   10   16 1
    16   11   12 ar
    17   11   19 1
    18   12   20 1
    19   13   16 1
    20   14   15 1
    21   15   18 1
    22   16   18 1
    23   17   18 1
    24    1   21 1
    25    2   22 1
    26    3   23 1
    27    4   24 1
    28    5   25 1
    29   13   26 1
    30   13   27 1
    31   14   28 1
    32   14   29 1
    33   15   30 1
    34   15   31 1
    35   16   32 1
    36   17   33 1
    37   17   34 1
    38   17   35 1
    39   18   36 1
    40   19   37 1
    41   20   38 1
@<TRIPOS>Similarity
1.2142
@<TRIPOS>ShapeSim
0.6862
@<TRIPOS>PharmSim
0.5280
# END
# Name:		DB00861
# Created and modified by SHAFTS on Sun Nov 24 10:54:01 2013

# 

@<TRIPOS>MOLECULE
DB00861
   25    26     0
SMALL
USER_CHARGE


@<TRIPOS>ATOM
      1 C1          3.3056    1.5957   -1.0136 C.ar      1 <1>         0.0000
      2 C2         -0.1590    1.1921   -0.0539 C.ar      1 <1>         0.0000
      3 C3          4.5218    0.9488   -1.0527 C.ar      1 <1>         0.0000
      4 C4         -1.3703    1.8515   -0.0182 C.ar      1 <1>         0.0000
      5 C5          2.5859    0.1725    0.7974 C.ar      1 <1>         0.0000
      6 C6         -0.2305    3.9652    0.0390 C.ar      1 <1>         0.0000
      7 C7          2.3340    1.2145   -0.0853 C.ar      1 <1>         0.0000
      8 C8          1.0292    1.9197   -0.0464 C.ar      1 <1>         0.0000
      9 C9          3.8156   -0.4889    0.7568 C.ar      1 <1>         0.0000
     10 C10         4.7870   -0.0944   -0.1764 C.ar      1 <1>         0.0000
     11 C11        -1.4078    3.2362    0.0254 C.ar      1 <1>         0.0000
     12 C12         0.9880    3.3138   -0.0025 C.ar      1 <1>         0.0000
     13 C13         4.0917   -1.5942    1.6889 C.2       1 <1>         0.0000
     14 O1          5.1697   -2.1715    1.6510 O.co2     1 <1>        -0.5000
     15 O2          3.2432   -1.9355    2.5014 O.co2     1 <1>        -0.5000
     16 O3          5.9832   -0.7313   -0.2214 O.3       1 <1>         0.0000
     17 F1         -2.5968    3.8768    0.0604 F         1 <1>         0.0000
     18 F2          2.1366    4.0252    0.0050 F         1 <1>         0.0000
     19 H1          3.1059    2.4066   -1.6985 H         1 <1>         0.0000
     20 H2         -0.1319    0.1129   -0.0882 H         1 <1>         0.0000
     21 H3          5.2697    1.2519   -1.7705 H         1 <1>         0.0000
     22 H4         -2.2913    1.2876   -0.0244 H         1 <1>         0.0000
     23 H5          1.8337   -0.1253    1.5129 H         1 <1>         0.0000
     24 H6         -0.2644    5.0441    0.0733 H         1 <1>         0.0000
     25 H7          5.8858   -1.4653   -0.8434 H         1 <1>         0.0000
@<TRIPOS>BOND
     1    1    3 ar
     2    1    7 ar
     3    2    4 ar
     4    2    8 ar
     5    3   10 ar
     6    4   11 ar
     7    5    7 ar
     8    5    9 ar
     9    6   11 ar
    10    6   12 ar
    11    7    8 1
    12    8   12 ar
    13    9   10 ar
    14    9   13 1
    15   10   16 1
    16   11   17 1
    17   12   18 1
    18   13   14 1
    19   13   15 2
    20    1   19 1
    21    2   20 1
    22    3   21 1
    23    4   22 1
    24    5   23 1
    25    6   24 1
    26   16   25 1
@<TRIPOS>Similarity
1.2135
@<TRIPOS>ShapeSim
0.7833
@<TRIPOS>PharmSim
0.4302
# END
# Name:		DB04306
# Created and modified by SHAFTS on Sun Nov 24 10:54:01 2013

# 

@<TRIPOS>MOLECULE
DB04306
   34    36     0
SMALL
USER_CHARGE


@<TRIPOS>ATOM
      1 C1          2.2789    0.6832    0.4508 C.ar      1 <1>        -0.0589
      2 C2          5.0078   -3.7383    1.5557 C.ar      1 <1>        -0.0582
      3 C3          5.8512   -2.2275    3.2151 C.ar      1 <1>        -0.0582
      4 C4          1.9958    1.6378   -0.4830 C.ar      1 <1>        -0.0355
      5 C5          3.5244    0.0716    0.4974 C.ar      1 <1>        -0.0473
      6 C6          5.2450   -2.7976    0.5731 C.ar      1 <1>        -0.0480
      7 C7          6.0964   -1.2841    2.2369 C.ar      1 <1>        -0.0480
      8 C8          4.2479    1.4049   -1.3716 C.ar      1 <1>         0.0542
      9 C9          5.3105   -3.4542    2.8749 C.ar      1 <1>        -0.0510
     10 C10         2.9741    2.0217   -1.4087 C.ar      1 <1>         0.0787
     11 C11         5.7885   -1.5641    0.9111 C.ar      1 <1>         0.0123
     12 C12         4.5154    0.4202   -0.4038 C.ar      1 <1>         0.0251
     13 C13         5.2165    1.8055   -2.3204 C.ar      1 <1>         0.1292
     14 C14         3.6779    3.2954   -3.2023 C.ar      1 <1>         0.2133
     15 C15         5.0502   -4.4835    3.9444 C.3       1 <1>        -0.0398
     16 N1          2.7376    2.9589   -2.3400 N.ar      1 <1>        -0.2151
     17 N2          4.8866    2.7404   -3.2009 N.ar      1 <1>        -0.1998
     18 N3          6.4734    1.2383   -2.3296 N.pl3     1 <1>        -0.3425
     19 N4          3.3951    4.2655   -4.1466 N.pl3     1 <1>        -0.3273
     20 S1          6.0935   -0.3609   -0.3394 S.3       1 <1>        -0.0892
     21 H1          1.5196    0.3958    1.1630 H         1 <1>         0.0624
     22 H2          4.5849   -4.6970    1.2937 H         1 <1>         0.0626
     23 H3          6.0862   -2.0089    4.2462 H         1 <1>         0.0626
     24 H4          1.0209    2.1019   -0.5030 H         1 <1>         0.0645
     25 H5          3.7218   -0.6836    1.2437 H         1 <1>         0.0635
     26 H6          5.0080   -3.0200   -0.4568 H         1 <1>         0.0634
     27 H7          6.5187   -0.3264    2.5033 H         1 <1>         0.0634
     28 H8          5.9328   -5.1113    4.0670 H         1 <1>         0.0280
     29 H9          4.8280   -3.9811    4.8858 H         1 <1>         0.0280
     30 H10         4.2015   -5.1026    3.6539 H         1 <1>         0.0280
     31 H11         6.8788    0.9713   -3.1693 H         1 <1>         0.1442
     32 H12         6.9521    1.1064   -1.4962 H         1 <1>         0.1442
     33 H13         4.0719    4.5279   -4.7900 H         1 <1>         0.1457
     34 H14         2.5199    4.6833   -4.1655 H         1 <1>         0.1457
@<TRIPOS>BOND
     1    1    4 ar
     2    1    5 ar
     3    2    6 ar
     4    2    9 ar
     5    3    7 ar
     6    3    9 ar
     7    4   10 ar
     8    5   12 ar
     9    6   11 ar
    10    7   11 ar
    11    8   10 ar
    12    8   12 ar
    13    8   13 ar
    14    9   15 1
    15   10   16 ar
    16   11   20 1
    17   12   20 1
    18   13   17 ar
    19   13   18 1
    20   14   16 ar
    21   14   17 ar
    22   14   19 1
    23    1   21 1
    24    2   22 1
    25    3   23 1
    26    4   24 1
    27    5   25 1
    28    6   26 1
    29    7   27 1
    30   15   28 1
    31   15   29 1
    32   15   30 1
    33   18   31 1
    34   18   32 1
    35   19   33 1
    36   19   34 1
@<TRIPOS>Similarity
1.2128
@<TRIPOS>ShapeSim
0.7469
@<TRIPOS>PharmSim
0.4659
# END
# Name:		DB07834
# Created and modified by SHAFTS on Sun Nov 24 10:54:01 2013

# 

@<TRIPOS>MOLECULE
DB07834
   47    50     0
SMALL
USER_CHARGE


@<TRIPOS>ATOM
      1 C1          0.1326    0.8726    0.1356 C.ar      1 <1>        -0.0536
      2 C2          1.0481    3.1092    0.1480 C.ar      1 <1>        -0.0536
      3 C3          5.1312    0.1503   -0.6166 C.ar      1 <1>        -0.0503
      4 C4         -1.1278    1.3860    0.3427 C.ar      1 <1>        -0.0491
      5 C5         -0.2124    3.6253    0.3484 C.ar      1 <1>        -0.0491
      6 C6          4.6590    1.1798   -1.4064 C.ar      1 <1>        -0.0579
      7 C7          3.0567    0.1426    0.6178 C.ar      1 <1>        -0.0425
      8 C8          1.2283    1.7305    0.0369 C.ar      1 <1>        -0.0180
      9 C9          4.3314   -0.3766    0.3991 C.ar      1 <1>         0.0271
     10 C10         2.5856    1.1761   -0.1858 C.ar      1 <1>        -0.0147
     11 C11        -1.3095    2.7668    0.4536 C.ar      1 <1>         0.0370
     12 C12         3.3945    1.6941   -1.1976 C.ar      1 <1>        -0.0432
     13 C13         4.8377   -1.4791    1.2445 C.2       1 <1>         0.2021
     14 C14         6.0830   -3.0118    2.1072 C.2       1 <1>         0.1687
     15 C15        -2.6615    3.3189    0.6759 C.2       1 <1>         0.2429
     16 C16        -6.8235    1.6941    2.3766 C.3       1 <1>        -0.0486
     17 C17        -7.5552    2.2662    1.1608 C.3       1 <1>        -0.0486
     18 C18        -6.0749    1.8939    1.0574 C.3       1 <1>        -0.0257
     19 C19         2.8870    2.8170   -2.0650 C.3       1 <1>        -0.0392
     20 C20         7.2346   -3.9390    2.3990 C.3       1 <1>         0.0027
     21 C21        -5.0620    3.0385    0.9862 C.3       1 <1>         0.0141
     22 N1          4.1931   -2.0677    2.2244 N.2       1 <1>        -0.1218
     23 N2          4.9409   -2.9814    2.7355 N.2       1 <1>        -0.1271
     24 N3         -3.7203    2.4905    0.7718 N.am      1 <1>        -0.3111
     25 O1         -2.8198    4.5208    0.7674 O.2       1 <1>        -0.2719
     26 O2          6.0452   -2.0705    1.1485 O.3       1 <1>        -0.2729
     27 H1          0.2734   -0.1948    0.0497 H         1 <1>         0.0629
     28 H2          1.8970    3.7725    0.0718 H         1 <1>         0.0629
     29 H3          6.1206   -0.2482   -0.7853 H         1 <1>         0.0630
     30 H4         -1.9758    0.7217    0.4197 H         1 <1>         0.0631
     31 H5         -0.3517    4.6929    0.4344 H         1 <1>         0.0631
     32 H6          5.2810    1.5844   -2.1912 H         1 <1>         0.0626
     33 H7          2.4341   -0.2610    1.4026 H         1 <1>         0.0637
     34 H8         -7.0599    0.6717    2.6713 H         1 <1>         0.0270
     35 H9         -6.5944    2.3780    3.1939 H         1 <1>         0.0270
     36 H10        -7.8076    3.3264    1.1783 H         1 <1>         0.0270
     37 H11        -8.2731    1.6201    0.6557 H         1 <1>         0.0270
     38 H12        -5.8188    1.0032    0.4837 H         1 <1>         0.0319
     39 H13         3.1521    3.7730   -1.6137 H         1 <1>         0.0280
     40 H14         3.3387    2.7445   -3.0544 H         1 <1>         0.0280
     41 H15         1.8031    2.7455   -2.1545 H         1 <1>         0.0280
     42 H16         7.1292   -4.8471    1.8055 H         1 <1>         0.0318
     43 H17         8.1722   -3.4450    2.1441 H         1 <1>         0.0318
     44 H18         7.2352   -4.1953    3.4585 H         1 <1>         0.0318
     45 H19        -5.0805    3.5987    1.9210 H         1 <1>         0.0469
     46 H20        -5.3201    3.7012    0.1602 H         1 <1>         0.0469
     47 H21        -3.5940    1.5316    0.6988 H         1 <1>         0.1497
@<TRIPOS>BOND
     1    1    4 ar
     2    1    8 ar
     3    2    5 ar
     4    2    8 ar
     5    3    6 ar
     6    3    9 ar
     7    4   11 ar
     8    5   11 ar
     9    6   12 ar
    10    7    9 ar
    11    7   10 ar
    12    8   10 1
    13    9   13 1
    14   10   12 ar
    15   11   15 1
    16   12   19 1
    17   13   22 2
    18   13   26 1
    19   14   20 1
    20   14   23 2
    21   14   26 1
    22   15   24 am
    23   15   25 2
    24   16   17 1
    25   16   18 1
    26   17   18 1
    27   18   21 1
    28   21   24 1
    29   22   23 1
    30    1   27 1
    31    2   28 1
    32    3   29 1
    33    4   30 1
    34    5   31 1
    35    6   32 1
    36    7   33 1
    37   16   34 1
    38   16   35 1
    39   17   36 1
    40   17   37 1
    41   18   38 1
    42   19   39 1
    43   19   40 1
    44   19   41 1
    45   20   42 1
    46   20   43 1
    47   20   44 1
    48   21   45 1
    49   21   46 1
    50   24   47 1
@<TRIPOS>Similarity
1.2046
@<TRIPOS>ShapeSim
0.8108
@<TRIPOS>PharmSim
0.3939
# END
# Name:		DB08615
# Created and modified by SHAFTS on Sun Nov 24 10:54:01 2013

# 

@<TRIPOS>MOLECULE
DB08615
   36    38     0
SMALL
USER_CHARGE


@<TRIPOS>ATOM
      1 C1          5.7409   -2.5668    0.4478 C.ar      1 <1>        -0.0507
      2 C2          4.9897   -1.3118    2.3725 C.ar      1 <1>        -0.0507
      3 C3          2.1512    2.1111   -0.8832 C.ar      1 <1>        -0.0367
      4 C4          6.1435   -3.5907    1.2766 C.ar      1 <1>        -0.0403
      5 C5          5.3943   -2.3390    3.1961 C.ar      1 <1>        -0.0403
      6 C6          2.0429    3.0823   -1.8284 C.ar      1 <1>        -0.0265
      7 C7          4.2451    2.6058   -2.6482 C.ar      1 <1>        -0.0125
      8 C8          5.1603   -1.4184    0.9904 C.ar      1 <1>         0.0031
      9 C9          3.3267    1.3308   -0.7741 C.ar      1 <1>         0.0474
     10 C10         5.9723   -3.4816    2.6527 C.ar      1 <1>         0.0281
     11 C11         3.0758    3.3489   -2.7226 C.ar      1 <1>         0.1148
     12 C12         4.3600    1.6238   -1.6958 C.ar      1 <1>         0.0378
     13 C13         4.7277   -0.3182    0.1042 C.2       1 <1>         0.0790
     14 C14         2.5654   -0.0201    1.0858 C.3       1 <1>         0.0058
     15 C15         6.3048   -4.3623    4.9429 C.3       1 <1>        -0.0003
     16 C16         6.8702   -5.7746    2.9121 C.3       1 <1>        -0.0003
     17 N1          3.5888    0.3392    0.1011 N.pl3     1 <1>        -0.2969
     18 N2          6.3755   -4.5218    3.4884 N.pl3     1 <1>        -0.3369
     19 O1          2.9408    4.3265   -3.6576 O.3       1 <1>        -0.1926
     20 S1          5.6223    0.4632   -1.2313 S.3       1 <1>        -0.0717
     21 H1          5.8744   -2.6518   -0.6205 H         1 <1>         0.0630
     22 H2          4.5409   -0.4249    2.7950 H         1 <1>         0.0630
     23 H3          1.3288    1.9325   -0.2064 H         1 <1>         0.0644
     24 H4          6.5930   -4.4788    0.8576 H         1 <1>         0.0642
     25 H5          5.2626   -2.2572    4.2649 H         1 <1>         0.0642
     26 H6          1.1332    3.6615   -1.8866 H         1 <1>         0.0652
     27 H7          5.0576    2.7983   -3.3332 H         1 <1>         0.0664
     28 H8          2.6591    0.6254    1.9591 H         1 <1>         0.0436
     29 H9          1.5767    0.1065    0.6449 H         1 <1>         0.0436
     30 H10         2.6990   -1.0593    1.3861 H         1 <1>         0.0436
     31 H11         5.9935   -3.3455    5.1822 H         1 <1>         0.0432
     32 H12         5.5822   -5.0690    5.3512 H         1 <1>         0.0432
     33 H13         7.2857   -4.5539    5.3777 H         1 <1>         0.0432
     34 H14         6.9348   -5.6755    1.8285 H         1 <1>         0.0432
     35 H15         7.8582   -5.9953    3.3163 H         1 <1>         0.0432
     36 H16         6.1857   -6.5851    3.1627 H         1 <1>         0.0432
@<TRIPOS>BOND
     1    1    4 ar
     2    1    8 ar
     3    2    5 ar
     4    2    8 ar
     5    3    6 ar
     6    3    9 ar
     7    4   10 ar
     8    5   10 ar
     9    6   11 ar
    10    7   11 ar
    11    7   12 ar
    12    8   13 1
    13    9   12 ar
    14    9   17 1
    15   10   18 1
    16   11   19 1
    17   12   20 1
    18   13   17 2
    19   13   20 1
    20   14   17 1
    21   15   18 1
    22   16   18 1
    23    1   21 1
    24    2   22 1
    25    3   23 1
    26    4   24 1
    27    5   25 1
    28    6   26 1
    29    7   27 1
    30   14   28 1
    31   14   29 1
    32   14   30 1
    33   15   31 1
    34   15   32 1
    35   15   33 1
    36   16   34 1
    37   16   35 1
    38   16   36 1
@<TRIPOS>Similarity
1.2040
@<TRIPOS>ShapeSim
0.7665
@<TRIPOS>PharmSim
0.4376
# END
# Name:		DB07300
# Created and modified by SHAFTS on Sun Nov 24 10:54:01 2013

# 

@<TRIPOS>MOLECULE
DB07300
   46    49     0
SMALL
USER_CHARGE


@<TRIPOS>ATOM
      1 C1          0.7074    1.3926    0.6993 C.ar      1 <1>        -0.0190
      2 C2          3.4039    0.2067    0.3385 C.ar      1 <1>        -0.0122
      3 C3         -0.0493    3.4695   -1.0161 C.ar      1 <1>        -0.0027
      4 C4          6.4968   -2.8214    1.7515 C.2       1 <1>         0.0429
      5 C5          3.2603    2.8159   -2.2808 C.ar      1 <1>         0.0389
      6 C6          6.4447   -1.8408    0.8307 C.2       1 <1>         0.0219
      7 C7          4.5000   -2.0035    1.8373 C.2       1 <1>         0.0921
      8 C8          1.5920    1.8366   -0.2833 C.ar      1 <1>         0.0111
      9 C9          2.9197    1.2455   -0.4535 C.ar      1 <1>        -0.0004
     10 C10         3.7472    1.7668   -1.4804 C.ar      1 <1>         0.0408
     11 C11         1.2188    2.8886   -1.1536 C.ar      1 <1>         0.0736
     12 C12        -0.5333    1.9820    0.8208 C.ar      1 <1>         0.1056
     13 C13        -0.9082    3.0226   -0.0367 C.ar      1 <1>         0.1075
     14 C14         4.6774   -0.2773    0.0912 C.ar      1 <1>         0.1319
     15 C15         5.0283    1.2110   -1.6591 C.ar      1 <1>         0.1265
     16 C16        -0.7380    0.4958    2.4830 C.3       1 <1>         0.0424
     17 C17        -4.9817    6.6019    0.4567 C.3       1 <1>         0.0356
     18 C18        -2.2282    4.6062   -0.9095 C.3       1 <1>         0.0768
     19 C19        -3.5924    5.2925   -0.8160 C.3       1 <1>         0.0702
     20 N1          5.2976   -2.9014    2.3474 N.2       1 <1>        -0.2473
     21 N2          2.0697    3.3192   -2.1012 N.ar      1 <1>        -0.2553
     22 N3          5.4350    0.2267   -0.8760 N.ar      1 <1>        -0.2171
     23 N4          5.1768   -1.3191    0.8774 N.pl3     1 <1>        -0.2499
     24 N5          5.8617    1.6963   -2.6510 N.pl3     1 <1>        -0.3426
     25 O1         -1.3964    1.5504    1.7786 O.3       1 <1>        -0.3465
     26 O2         -2.1344    3.5939    0.0947 O.3       1 <1>        -0.3408
     27 O3         -3.6927    5.9853    0.4297 O.3       1 <1>        -0.3822
     28 H1          0.9933    0.5901    1.3631 H         1 <1>         0.0658
     29 H2          2.7986   -0.2121    1.1289 H         1 <1>         0.0666
     30 H3         -0.3497    4.2729   -1.6724 H         1 <1>         0.0674
     31 H4          7.3557   -3.4378    1.9721 H         1 <1>         0.0854
     32 H5          3.8874    3.2149   -3.0643 H         1 <1>         0.0848
     33 H6          7.2469   -1.5256    0.1799 H         1 <1>         0.0813
     34 H7          3.4722   -1.8372    2.1242 H         1 <1>         0.1020
     35 H8          0.1794    0.8763    2.9321 H         1 <1>         0.0535
     36 H9         -1.3951    0.1159    3.2654 H         1 <1>         0.0535
     37 H10        -0.4962   -0.3091    1.7890 H         1 <1>         0.0535
     38 H11        -5.1049    7.1453    1.3935 H         1 <1>         0.0529
     39 H12        -5.0705    7.2951   -0.3798 H         1 <1>         0.0529
     40 H13        -5.7527    5.8356    0.3770 H         1 <1>         0.0529
     41 H14        -2.1163    4.1526   -1.8943 H         1 <1>         0.0596
     42 H15        -1.4396    5.3431   -0.7573 H         1 <1>         0.0596
     43 H16        -4.3812    4.5429   -0.8795 H         1 <1>         0.0591
     44 H17        -3.6990    6.0024   -1.6363 H         1 <1>         0.0591
     45 H18         6.7451    1.3143   -2.7722 H         1 <1>         0.1442
     46 H19         5.5627    2.4185   -3.2253 H         1 <1>         0.1442
@<TRIPOS>BOND
     1    1    8 ar
     2    1   12 ar
     3    2    9 ar
     4    2   14 ar
     5    3   11 ar
     6    3   13 ar
     7    4    6 2
     8    4   20 1
     9    5   10 ar
    10    5   21 ar
    11    6   23 1
    12    7   20 2
    13    7   23 1
    14    8    9 ar
    15    8   11 ar
    16    9   10 ar
    17   10   15 ar
    18   11   21 ar
    19   12   13 ar
    20   12   25 1
    21   13   26 1
    22   14   22 ar
    23   14   23 1
    24   15   22 ar
    25   15   24 1
    26   16   25 1
    27   17   27 1
    28   18   19 1
    29   18   26 1
    30   19   27 1
    31    1   28 1
    32    2   29 1
    33    3   30 1
    34    4   31 1
    35    5   32 1
    36    6   33 1
    37    7   34 1
    38   16   35 1
    39   16   36 1
    40   16   37 1
    41   17   38 1
    42   17   39 1
    43   17   40 1
    44   18   41 1
    45   18   42 1
    46   19   43 1
    47   19   44 1
    48   24   45 1
    49   24   46 1
@<TRIPOS>Similarity
1.2026
@<TRIPOS>ShapeSim
0.8059
@<TRIPOS>PharmSim
0.3967
# END
# Name:		DB08683
# Created and modified by SHAFTS on Sun Nov 24 10:54:01 2013

# 

@<TRIPOS>MOLECULE
DB08683
   45    52     0
SMALL
USER_CHARGE


@<TRIPOS>ATOM
      1 C1         -0.7980    3.6734   -0.5708 C.ar      1 <1>        -0.0615
      2 C2          6.9845   -2.8210    1.5696 C.ar      1 <1>        -0.0615
      3 C3         -1.6128    3.0798    0.3773 C.ar      1 <1>        -0.0603
      4 C4          6.2403   -3.4602    2.5457 C.ar      1 <1>        -0.0603
      5 C5          0.4625    3.1799   -0.8615 C.ar      1 <1>        -0.0524
      6 C6          6.4462   -1.8180    0.7816 C.ar      1 <1>        -0.0524
      7 C7         -1.2216    1.9577    1.0883 C.ar      1 <1>        -0.0399
      8 C8          4.9150   -3.1418    2.7901 C.ar      1 <1>        -0.0399
      9 C9          0.8765    2.0506   -0.1529 C.ar      1 <1>         0.0061
     10 C10         5.1128   -1.4779    1.0169 C.ar      1 <1>         0.0061
     11 C11         2.1158    1.2783   -0.1917 C.ar      1 <1>         0.0205
     12 C12         4.2417   -0.4780    0.4051 C.ar      1 <1>         0.0205
     13 C13         3.3193    1.3570   -0.9062 C.ar      1 <1>         0.0605
     14 C14         4.3808    0.4821   -0.6072 C.ar      1 <1>         0.0605
     15 C15         0.0417    1.4369    0.8122 C.ar      1 <1>         0.0434
     16 C16         4.3462   -2.1379    2.0076 C.ar      1 <1>         0.0434
     17 C17         1.9558    0.2673    0.7675 C.ar      1 <1>         0.0665
     18 C18         3.0131   -0.5948    1.0722 C.ar      1 <1>         0.0665
     19 C19         3.8029    2.2200   -1.9990 C.2       1 <1>         0.2512
     20 C20         5.4732    0.8423   -1.5290 C.2       1 <1>         0.2512
     21 C21         0.5938   -0.2674    3.6980 C.3       1 <1>        -0.0052
     22 C22         1.7554   -1.2278    4.0258 C.3       1 <1>        -0.0052
     23 C23         0.1517   -0.6439    2.2696 C.3       1 <1>         0.1302
     24 C24         1.9210   -2.1039    2.7673 C.3       1 <1>         0.1302
     25 N1          0.6897    0.3410    1.3258 N.pl3     1 <1>        -0.2711
     26 N2          3.0739   -1.6219    1.9997 N.pl3     1 <1>        -0.2711
     27 N3          5.0621    1.8608   -2.3050 N.am      1 <1>        -0.2475
     28 O1          3.1693    3.1081   -2.5340 O.2       1 <1>        -0.2713
     29 O2          6.5634    0.3081   -1.5793 O.2       1 <1>        -0.2713
     30 O3          0.7178   -1.9310    2.0171 O.3       1 <1>        -0.3382
     31 H1         -1.1550    4.5456   -1.0980 H         1 <1>         0.0623
     32 H2          8.0132   -3.1131    1.4182 H         1 <1>         0.0623
     33 H3         -2.5865    3.5058    0.5689 H         1 <1>         0.0623
     34 H4          6.7090   -4.2330    3.1370 H         1 <1>         0.0623
     35 H5          1.0953    3.6462   -1.6022 H         1 <1>         0.0630
     36 H6          7.0304   -1.3222    0.0204 H         1 <1>         0.0630
     37 H7         -1.8682    1.5049    1.8254 H         1 <1>         0.0643
     38 H8          4.3457   -3.6501    3.5544 H         1 <1>         0.0643
     39 H9          0.9378    0.7665    3.7274 H         1 <1>         0.0312
     40 H10        -0.2277   -0.4138    4.3993 H         1 <1>         0.0312
     41 H11         1.5032   -1.8466    4.8870 H         1 <1>         0.0312
     42 H12         2.6690   -0.6651    4.2178 H         1 <1>         0.0312
     43 H13        -0.9350   -0.6860    2.1950 H         1 <1>         0.0824
     44 H14         2.0610   -3.1481    3.0467 H         1 <1>         0.0824
     45 H15         5.6003    2.2777   -2.9959 H         1 <1>         0.1592
@<TRIPOS>BOND
     1    1    3 ar
     2    1    5 ar
     3    2    4 ar
     4    2    6 ar
     5    3    7 ar
     6    4    8 ar
     7    5    9 ar
     8    6   10 ar
     9    7   15 ar
    10    8   16 ar
    11    9   11 1
    12    9   15 ar
    13   10   12 1
    14   10   16 ar
    15   11   13 ar
    16   11   17 ar
    17   12   14 ar
    18   12   18 ar
    19   13   14 ar
    20   13   19 1
    21   14   20 1
    22   15   25 1
    23   16   26 1
    24   17   18 ar
    25   17   25 1
    26   18   26 1
    27   19   27 am
    28   19   28 2
    29   20   27 am
    30   20   29 2
    31   21   22 1
    32   21   23 1
    33   22   24 1
    34   23   25 1
    35   23   30 1
    36   24   26 1
    37   24   30 1
    38    1   31 1
    39    2   32 1
    40    3   33 1
    41    4   34 1
    42    5   35 1
    43    6   36 1
    44    7   37 1
    45    8   38 1
    46   21   39 1
    47   21   40 1
    48   22   41 1
    49   22   42 1
    50   23   43 1
    51   24   44 1
    52   27   45 1
@<TRIPOS>Similarity
1.2014
@<TRIPOS>ShapeSim
0.7863
@<TRIPOS>PharmSim
0.4151
# END
