@<TRIPOS>MOLECULE
DB00861
 25 26 0 0 0
SMALL
USER_CHARGES

@<TRIPOS>ATOM
      1 C           3.3056    1.5957   -1.0136 C.ar    1  LIG1        0.0000
      2 C          -0.1590    1.1921   -0.0539 C.ar    1  LIG1        0.0000
      3 C           4.5218    0.9488   -1.0527 C.ar    1  LIG1        0.0000
      4 C          -1.3703    1.8515   -0.0182 C.ar    1  LIG1        0.0000
      5 C           2.5859    0.1725    0.7974 C.ar    1  LIG1        0.0000
      6 C          -0.2305    3.9652    0.0390 C.ar    1  LIG1        0.0000
      7 C           2.3340    1.2145   -0.0853 C.ar    1  LIG1        0.0000
      8 C           1.0292    1.9197   -0.0464 C.ar    1  LIG1        0.0000
      9 C           3.8156   -0.4889    0.7568 C.ar    1  LIG1        0.0000
     10 C           4.7870   -0.0944   -0.1764 C.ar    1  LIG1        0.0000
     11 C          -1.4078    3.2362    0.0254 C.ar    1  LIG1        0.0000
     12 C           0.9880    3.3138   -0.0025 C.ar    1  LIG1        0.0000
     13 C           4.0917   -1.5942    1.6889 C.2     1  LIG1        0.0000
     14 O           5.1697   -2.1715    1.6510 O.co2   1  LIG1       -0.5000
     15 O           3.2432   -1.9355    2.5014 O.co2   1  LIG1       -0.5000
     16 O           5.9832   -0.7313   -0.2214 O.3     1  LIG1        0.0000
     17 F          -2.5968    3.8768    0.0604 F       1  LIG1        0.0000
     18 F           2.1366    4.0252    0.0050 F       1  LIG1        0.0000
     19 H           3.1059    2.4066   -1.6985 H       1  LIG1        0.0000
     20 H          -0.1319    0.1129   -0.0882 H       1  LIG1        0.0000
     21 H           5.2697    1.2519   -1.7705 H       1  LIG1        0.0000
     22 H          -2.2913    1.2876   -0.0244 H       1  LIG1        0.0000
     23 H           1.8337   -0.1253    1.5129 H       1  LIG1        0.0000
     24 H          -0.2644    5.0441    0.0733 H       1  LIG1        0.0000
     25 H           5.8858   -1.4653   -0.8434 H       1  LIG1        0.0000
@<TRIPOS>BOND
     1     1     3   ar
     2     1     7   ar
     3     2     4   ar
     4     2     8   ar
     5     3    10   ar
     6     4    11   ar
     7     5     7   ar
     8     5     9   ar
     9     6    11   ar
    10     6    12   ar
    11     7     8    1
    12     8    12   ar
    13     9    10   ar
    14     9    13    1
    15    10    16    1
    16    11    17    1
    17    12    18    1
    18    13    14   ar
    19    13    15   ar
    20     1    19    1
    21     2    20    1
    22     3    21    1
    23     4    22    1
    24     5    23    1
    25     6    24    1
    26    16    25    1
