@<TRIPOS>MOLECULE
DB00210
 58 63 0 0 0
SMALL
USER_CHARGES

@<TRIPOS>ATOM
      1 C          -1.2529    1.5952    0.6919 C.ar    1  LIG1        0.0000
      2 C          -1.0510    5.1662   -0.3015 C.ar    1  LIG1        0.0000
      3 C           0.0373    1.1561    0.3932 C.ar    1  LIG1        0.0000
      4 C           3.0243    2.1805   -1.4843 C.ar    1  LIG1        0.0000
      5 C          -2.3412    5.6053   -0.0029 C.ar    1  LIG1        0.0000
      6 C           4.3133    1.7395   -1.7837 C.ar    1  LIG1        0.0000
      7 C           0.6164    3.3724   -0.3686 C.ar    1  LIG1        0.0000
      8 C          -2.9204    3.3889    0.7588 C.ar    1  LIG1        0.0000
      9 C           2.8788    0.5492    0.2918 C.ar    1  LIG1        0.0000
     10 C          -0.6776    3.8317   -0.0739 C.ar    1  LIG1        0.0000
     11 C          -1.6263    2.9298    0.4642 C.ar    1  LIG1        0.0000
     12 C           0.9701    2.0429   -0.1360 C.ar    1  LIG1        0.0000
     13 C           2.3070    1.5854   -0.4464 C.ar    1  LIG1        0.0000
     14 C          -3.2741    4.7183    0.5264 C.ar    1  LIG1        0.0000
     15 C           4.1678    0.1082   -0.0077 C.ar    1  LIG1        0.0000
     16 C           4.8850    0.7034   -1.0455 C.ar    1  LIG1        0.0000
     17 C          -4.6349    5.1833    0.8399 C.2     1  LIG1        0.0000
     18 C           4.7197   -3.8197    1.7882 C.3     1  LIG1        0.0000
     19 C           5.6658   -2.1496    3.4007 C.3     1  LIG1        0.0000
     20 C           7.0035   -2.8612    1.4041 C.3     1  LIG1        0.0000
     21 C           3.7756   -1.5007    1.8889 C.3     1  LIG1        0.0000
     22 C           5.1061   -2.2249   -0.1084 C.3     1  LIG1        0.0000
     23 C           6.0611   -0.5392    1.5189 C.3     1  LIG1        0.0000
     24 C           4.3833   -2.6455    2.7182 C.3     1  LIG1        0.0000
     25 C           5.7232   -3.3663    0.7188 C.3     1  LIG1        0.0000
     26 C           6.6747   -1.6868    2.3402 C.3     1  LIG1        0.0000
     27 C           4.7638   -1.0010    0.7917 C.3     1  LIG1        0.0000
     28 C           6.8046    0.9485   -2.4276 C.3     1  LIG1        0.0000
     29 O          -5.4797    4.3428    1.3285 O.co2   1  LIG1       -0.5000
     30 O          -4.9362    6.4151    0.6151 O.co2   1  LIG1       -0.5000
     31 O           6.1444    0.2844   -1.3520 O.3     1  LIG1        0.0000
     32 H          -1.9660    0.8843    1.1041 H       1  LIG1        0.0000
     33 H          -0.3386    5.8774   -0.7145 H       1  LIG1        0.0000
     34 H           0.2981    0.1168    0.5788 H       1  LIG1        0.0000
     35 H           2.5928    2.9894   -2.0692 H       1  LIG1        0.0000
     36 H          -2.6073    6.6429   -0.1880 H       1  LIG1        0.0000
     37 H           4.8669    2.2069   -2.5936 H       1  LIG1        0.0000
     38 H           1.3513    4.0611   -0.7835 H       1  LIG1        0.0000
     39 H          -3.6595    2.7045    1.1730 H       1  LIG1        0.0000
     40 H           2.3234    0.0815    1.1026 H       1  LIG1        0.0000
     41 H           5.1392   -4.6502    2.3694 H       1  LIG1        0.0000
     42 H           3.8060   -4.1950    1.3112 H       1  LIG1        0.0000
     43 H           5.4328   -1.3233    4.0836 H       1  LIG1        0.0000
     44 H           6.1013   -2.9517    4.0090 H       1  LIG1        0.0000
     45 H           7.4669   -3.6751    1.9752 H       1  LIG1        0.0000
     46 H           7.7345   -2.5466    0.6491 H       1  LIG1        0.0000
     47 H           2.8395   -1.8393    1.4245 H       1  LIG1        0.0000
     48 H           3.5022   -0.6698    2.5536 H       1  LIG1        0.0000
     49 H           5.8067   -1.9235   -0.8987 H       1  LIG1        0.0000
     50 H           4.2025   -2.5839   -0.6193 H       1  LIG1        0.0000
     51 H           5.8435    0.3129    2.1770 H       1  LIG1        0.0000
     52 H           6.7942   -0.1806    0.7840 H       1  LIG1        0.0000
     53 H           3.6642   -2.9717    3.4780 H       1  LIG1        0.0000
     54 H           5.9651   -4.2080    0.0602 H       1  LIG1        0.0000
     55 H           7.5908   -1.3385    2.8305 H       1  LIG1        0.0000
     56 H           7.7994    0.5182   -2.5669 H       1  LIG1        0.0000
     57 H           6.8855    2.0151   -2.2037 H       1  LIG1        0.0000
     58 H           6.2205    0.8132   -3.3411 H       1  LIG1        0.0000
@<TRIPOS>BOND
     1     1     3   ar
     2     1    11   ar
     3     2     5   ar
     4     2    10   ar
     5     3    12   ar
     6     4     6   ar
     7     4    13   ar
     8     5    14   ar
     9     6    16   ar
    10     7    10   ar
    11     7    12   ar
    12     8    11   ar
    13     8    14   ar
    14     9    13   ar
    15     9    15   ar
    16    10    11   ar
    17    12    13    1
    18    14    17    1
    19    15    16   ar
    20    15    27    1
    21    16    31    1
    22    17    29   ar
    23    17    30   ar
    24    18    24    1
    25    18    25    1
    26    19    24    1
    27    19    26    1
    28    20    25    1
    29    20    26    1
    30    21    24    1
    31    21    27    1
    32    22    25    1
    33    22    27    1
    34    23    26    1
    35    23    27    1
    36    28    31    1
    37     1    32    1
    38     2    33    1
    39     3    34    1
    40     4    35    1
    41     5    36    1
    42     6    37    1
    43     7    38    1
    44     8    39    1
    45     9    40    1
    46    18    41    1
    47    18    42    1
    48    19    43    1
    49    19    44    1
    50    20    45    1
    51    20    46    1
    52    21    47    1
    53    21    48    1
    54    22    49    1
    55    22    50    1
    56    23    51    1
    57    23    52    1
    58    24    53    1
    59    25    54    1
    60    26    55    1
    61    28    56    1
    62    28    57    1
    63    28    58    1
