@<TRIPOS>MOLECULE
DB01809
 40 42 0 0 0
SMALL
USER_CHARGES

@<TRIPOS>ATOM
      1 C           0.1663    1.2884   -0.7596 C.ar    1  LIG1       -0.0525
      2 C           1.0781    2.9017    0.7904 C.ar    1  LIG1       -0.0525
      3 C          -1.0618    1.9489   -0.7247 C.ar    1  LIG1       -0.0586
      4 C          -0.1500    3.5623    0.8254 C.ar    1  LIG1       -0.0586
      5 C           5.9530    1.1002   -2.0877 C.ar    1  LIG1        0.1195
      6 C           3.5796    1.3185   -0.9167 C.ar    1  LIG1        0.0844
      7 C           1.2362    1.7648   -0.0020 C.ar    1  LIG1        0.0026
      8 C          -1.2199    3.0858    0.0679 C.ar    1  LIG1       -0.0511
      9 C           2.5051    1.0825   -0.0391 C.ar    1  LIG1        0.1030
     10 C           4.5415    0.4011   -0.5315 C.ar    1  LIG1        0.1550
     11 C           3.8975    2.1601   -1.9774 C.ar    1  LIG1        0.1297
     12 C          -2.5329    3.7920    0.1035 C.3     1  LIG1       -0.0398
     13 C           6.0617   -1.6625    0.7178 C.3     1  LIG1       -0.0421
     14 C           3.7929   -2.6810    1.1590 C.3     1  LIG1       -0.0421
     15 C           4.8058   -1.1021    2.7870 C.3     1  LIG1       -0.0421
     16 C           4.6454   -1.3978    1.2751 C.3     1  LIG1        0.0499
     17 N           5.7584    0.2313   -1.0722 N.ar    1  LIG1       -0.2188
     18 N           5.1098    2.0438   -2.5703 N.ar    1  LIG1       -0.2211
     19 N           2.7566    0.0996    0.8326 N.ar    1  LIG1       -0.1781
     20 N           4.0019   -0.2954    0.5086 N.ar    1  LIG1       -0.2013
     21 N           2.9856    3.1246   -2.4431 N.pl3   1  LIG1       -0.3425
     22 H           0.2729    0.4030   -1.3820 H       1  LIG1        0.0630
     23 H           1.9027    3.2856    1.3867 H       1  LIG1        0.0630
     24 H          -1.8901    1.5715   -1.3185 H       1  LIG1        0.0625
     25 H          -0.2650    4.4475    1.4453 H       1  LIG1        0.0625
     26 H           6.9142    1.0322   -2.5861 H       1  LIG1        0.1063
     27 H          -3.1655    3.3824    0.9006 H       1  LIG1        0.0280
     28 H          -2.4025    4.8673    0.2808 H       1  LIG1        0.0280
     29 H          -3.0663    3.6901   -0.8508 H       1  LIG1        0.0280
     30 H           6.6883   -0.7659    0.7885 H       1  LIG1        0.0253
     31 H           6.5804   -2.4582    1.2632 H       1  LIG1        0.0253
     32 H           6.0194   -1.9598   -0.3365 H       1  LIG1        0.0253
     33 H           2.7770   -2.5407    1.5433 H       1  LIG1        0.0253
     34 H           3.6978   -2.9995    0.1145 H       1  LIG1        0.0253
     35 H           4.2465   -3.5058    1.7211 H       1  LIG1        0.0253
     36 H           3.8339   -0.9028    3.2546 H       1  LIG1        0.0253
     37 H           5.2487   -1.9514    3.3201 H       1  LIG1        0.0253
     38 H           5.4321   -0.2196    2.9616 H       1  LIG1        0.0253
     39 H           2.0725    3.1760   -2.0342 H       1  LIG1        0.1442
     40 H           3.2256    3.6839   -3.2390 H       1  LIG1        0.1442
@<TRIPOS>BOND
     1     1     3   ar
     2     1     7   ar
     3     2     4   ar
     4     2     7   ar
     5     3     8   ar
     6     4     8   ar
     7     5    17   ar
     8     5    18   ar
     9     6     9   ar
    10     6    10   ar
    11     6    11   ar
    12     7     9    1
    13     8    12    1
    14     9    19   ar
    15    10    17   ar
    16    10    20   ar
    17    11    18   ar
    18    11    21    1
    19    13    16    1
    20    14    16    1
    21    15    16    1
    22    16    20    1
    23    19    20   ar
    24     1    22    1
    25     2    23    1
    26     3    24    1
    27     4    25    1
    28     5    26    1
    29    12    27    1
    30    12    28    1
    31    12    29    1
    32    13    30    1
    33    13    31    1
    34    13    32    1
    35    14    33    1
    36    14    34    1
    37    14    35    1
    38    15    36    1
    39    15    37    1
    40    15    38    1
    41    21    39    1
    42    21    40    1
