@<TRIPOS>MOLECULE
DB02052
 32 35 0 0 0
SMALL
USER_CHARGES

@<TRIPOS>ATOM
      1 C           4.9325   -2.8753    2.6337 C.ar    1  LIG1       -0.0615
      2 C          -0.5411    3.2569   -0.5054 C.ar    1  LIG1       -0.0614
      3 C           6.2341   -3.2007    2.2072 C.ar    1  LIG1       -0.0603
      4 C          -0.9659    2.4563    0.5724 C.ar    1  LIG1       -0.0603
      5 C           4.2032   -1.8583    2.0084 C.ar    1  LIG1       -0.0522
      6 C           0.7238    3.0855   -1.0707 C.ar    1  LIG1       -0.0508
      7 C           6.8317   -2.5159    1.1474 C.ar    1  LIG1       -0.0401
      8 C          -0.1335    1.4671    1.1082 C.ar    1  LIG1       -0.0401
      9 C           4.8013   -1.1849    0.9603 C.ar    1  LIG1        0.0104
     10 C           1.5260    2.1036   -0.5254 C.ar    1  LIG1        0.0258
     11 C           6.0943   -1.5157    0.5444 C.ar    1  LIG1        0.0409
     12 C           1.1167    1.2989    0.5483 C.ar    1  LIG1        0.0400
     13 C           4.3698   -0.0983    0.0874 C.2     1  LIG1        0.0701
     14 C           2.8892    1.6688   -0.8764 C.2     1  LIG1        0.1215
     15 C           3.2075    0.5575    0.0885 C.2     1  LIG1        0.0728
     16 C           5.4830    0.2003   -0.8749 C.2     1  LIG1        0.2499
     17 N           3.5822    2.1881   -1.8226 N.2     1  LIG1       -0.1348
     18 N           2.1126    0.3961    0.8986 N.pl3   1  LIG1       -0.3118
     19 N           6.4893   -0.7060   -0.5263 N.am    1  LIG1       -0.2807
     20 O           5.4827    1.0455   -1.7507 O.2     1  LIG1       -0.2714
     21 O           2.8277    3.1987   -2.4271 O.2     1  LIG1       -0.2667
     22 H           4.4900   -3.4233    3.4615 H       1  LIG1        0.0623
     23 H          -1.2095    4.0175   -0.9006 H       1  LIG1        0.0623
     24 H           6.7787   -3.9945    2.7118 H       1  LIG1        0.0623
     25 H          -1.9555    2.6115    0.9943 H       1  LIG1        0.0623
     26 H           3.2016   -1.6151    2.3449 H       1  LIG1        0.0630
     27 H           1.0509    3.7001   -1.9008 H       1  LIG1        0.0630
     28 H           7.8340   -2.7654    0.8188 H       1  LIG1        0.0642
     29 H          -0.4695    0.8555    1.9382 H       1  LIG1        0.0642
     30 H           2.0582   -0.2847    1.6377 H       1  LIG1        0.1529
     31 H           7.3885   -0.7683   -0.9893 H       1  LIG1        0.1560
     32 H           3.4362    3.5170   -3.1154 H       1  LIG1        0.2482
@<TRIPOS>BOND
     1     1     3   ar
     2     1     5   ar
     3     2     4   ar
     4     2     6   ar
     5     3     7   ar
     6     4     8   ar
     7     5     9   ar
     8     6    10   ar
     9     7    11   ar
    10     8    12   ar
    11     9    11   ar
    12     9    13    1
    13    10    12   ar
    14    10    14    1
    15    11    19    1
    16    12    18    1
    17    13    15    2
    18    13    16    1
    19    14    15    1
    20    14    17    2
    21    15    18    1
    22    16    19   am
    23    16    20    2
    24    17    21    1
    25     1    22    1
    26     2    23    1
    27     3    24    1
    28     4    25    1
    29     5    26    1
    30     6    27    1
    31     7    28    1
    32     8    29    1
    33    18    30    1
    34    19    31    1
    35    21    32    1
