@<TRIPOS>MOLECULE
DB02402
 35 37 0 0 0
SMALL
USER_CHARGES

@<TRIPOS>ATOM
      1 C           3.1401   -0.2358    0.9559 C.ar    1  LIG1       -0.0574
      2 C           4.3879   -0.3446    0.3350 C.ar    1  LIG1       -0.0353
      3 C           2.2214    0.7095    0.5136 C.ar    1  LIG1       -0.0303
      4 C           0.2628    3.2642    0.8923 C.ar    1  LIG1       -0.0286
      5 C          -0.6498    1.6531   -0.6599 C.ar    1  LIG1       -0.0286
      6 C          -0.9433    3.2720    1.5931 C.ar    1  LIG1       -0.0292
      7 C          -1.8557    1.6610    0.0410 C.ar    1  LIG1       -0.0292
      8 C           3.8097    1.4287   -1.1682 C.ar    1  LIG1        0.0711
      9 C           4.7460    0.4777   -0.7306 C.ar    1  LIG1        0.0802
     10 C           0.4096    2.4547   -0.2342 C.ar    1  LIG1        0.0823
     11 C          -2.0025    2.4705    1.1675 C.ar    1  LIG1        0.0748
     12 C           2.5530    1.5443   -0.5490 C.ar    1  LIG1        0.0949
     13 C           4.2034    2.2318   -2.2347 C.ar    1  LIG1        0.1308
     14 C           6.2127    1.1954   -2.3398 C.ar    1  LIG1        0.2133
     15 C          -4.2206    1.6349    1.3613 C.3     1  LIG1        0.0422
     16 N           5.9508    0.3583   -1.3156 N.ar    1  LIG1       -0.2150
     17 N           5.4009    2.1392   -2.8430 N.ar    1  LIG1       -0.1998
     18 N           3.3365    3.2209   -2.7547 N.pl3   1  LIG1       -0.3425
     19 N           7.4799    1.0654   -2.9490 N.pl3   1  LIG1       -0.3273
     20 O           1.6049    2.4479   -0.9304 O.3     1  LIG1       -0.3096
     21 O          -3.1793    2.4784    1.8512 O.3     1  LIG1       -0.3493
     22 H           2.8899   -0.8909    1.7852 H       1  LIG1        0.0624
     23 H           5.0889   -1.0931    0.7004 H       1  LIG1        0.0645
     24 H           1.2538    0.7894    1.0013 H       1  LIG1        0.0651
     25 H           1.0835    3.8925    1.2272 H       1  LIG1        0.0651
     26 H          -0.5412    1.0213   -1.5372 H       1  LIG1        0.0651
     27 H          -1.0514    3.9035    2.4706 H       1  LIG1        0.0651
     28 H          -2.6774    1.0348   -0.2954 H       1  LIG1        0.0651
     29 H          -5.1030    1.7370    1.9978 H       1  LIG1        0.0535
     30 H          -3.8787    0.5969    1.3580 H       1  LIG1        0.0535
     31 H          -4.4726    1.9367    0.3419 H       1  LIG1        0.0535
     32 H           2.4167    3.3055   -2.3769 H       1  LIG1        0.1442
     33 H           3.6275    3.7497   -3.5497 H       1  LIG1        0.1442
     34 H           8.1337    0.4084   -2.5760 H       1  LIG1        0.1457
     35 H           7.7345    1.6965   -3.6806 H       1  LIG1        0.1457
@<TRIPOS>BOND
     1     1     2   ar
     2     1     3   ar
     3     2     9   ar
     4     3    12   ar
     5     4     6   ar
     6     4    10   ar
     7     5     7   ar
     8     5    10   ar
     9     6    11   ar
    10     7    11   ar
    11     8     9   ar
    12     8    12   ar
    13     8    13   ar
    14     9    16   ar
    15    10    20    1
    16    11    21    1
    17    12    20    1
    18    13    17   ar
    19    13    18    1
    20    14    16   ar
    21    14    17   ar
    22    14    19    1
    23    15    21    1
    24     1    22    1
    25     2    23    1
    26     3    24    1
    27     4    25    1
    28     5    26    1
    29     6    27    1
    30     7    28    1
    31    15    29    1
    32    15    30    1
    33    15    31    1
    34    18    32    1
    35    18    33    1
    36    19    34    1
    37    19    35    1
