@<TRIPOS>MOLECULE
DB03023
 38 40 0 0 0
SMALL
USER_CHARGES

@<TRIPOS>ATOM
      1 C           0.1137    1.3282   -0.7711 C.ar    1  LIG1       -0.0515
      2 C           1.0263    2.9379    0.7824 C.ar    1  LIG1       -0.0515
      3 C          -1.1073    2.0022   -0.7522 C.ar    1  LIG1       -0.0429
      4 C          -0.1948    3.6119    0.8013 C.ar    1  LIG1       -0.0429
      5 C           5.9591    1.0815   -2.0697 C.ar    1  LIG1        0.1195
      6 C           3.5730    1.2985   -0.8931 C.ar    1  LIG1        0.0794
      7 C           1.1805    1.7960   -0.0038 C.ar    1  LIG1       -0.0020
      8 C          -1.2616    3.1441    0.0339 C.ar    1  LIG1        0.0406
      9 C           2.4382    1.1021   -0.0234 C.ar    1  LIG1        0.0652
     10 C           4.5622    0.3643   -0.5058 C.ar    1  LIG1        0.1513
     11 C           3.8993    2.1381   -1.9549 C.ar    1  LIG1        0.1294
     12 C           6.1149   -1.6564    0.6695 C.3     1  LIG1       -0.0424
     13 C           3.8771   -2.7255    1.1478 C.3     1  LIG1       -0.0424
     14 C           4.8966   -1.1495    2.7745 C.3     1  LIG1       -0.0424
     15 C           4.7070   -1.4274    1.2627 C.3     1  LIG1        0.0458
     16 N           5.7762    0.2082   -1.0570 N.ar    1  LIG1       -0.2191
     17 N           5.1112    2.0231   -2.5476 N.ar    1  LIG1       -0.2211
     18 N           4.0456   -0.3611    0.5494 N.ar    1  LIG1       -0.2315
     19 N           2.7021    0.0869    0.8740 N.ar    1  LIG1       -0.2618
     20 N           2.9902    3.1036   -2.4241 N.pl3   1  LIG1       -0.3425
     21 CL         -2.7681    3.9756    0.0588 Cl      1  LIG1       -0.0843
     22 H           0.2172    0.4395   -1.3896 H       1  LIG1        0.0630
     23 H           1.8485    3.3149    1.3861 H       1  LIG1        0.0630
     24 H          -1.9300    1.6263   -1.3551 H       1  LIG1        0.0638
     25 H          -0.3007    4.4995    1.4195 H       1  LIG1        0.0638
     26 H           6.9196    1.0224   -2.5710 H       1  LIG1        0.1063
     27 H           6.7255   -0.7486    0.7387 H       1  LIG1        0.0253
     28 H           6.6613   -2.4491    1.1915 H       1  LIG1        0.0253
     29 H           6.0541   -1.9399   -0.3877 H       1  LIG1        0.0253
     30 H           2.8678   -2.6106    1.5570 H       1  LIG1        0.0253
     31 H           3.7642   -3.0314    0.1013 H       1  LIG1        0.0253
     32 H           4.3594   -3.5488    1.6875 H       1  LIG1        0.0253
     33 H           3.9321   -0.9759    3.2669 H       1  LIG1        0.0253
     34 H           5.3680   -1.9972    3.2852 H       1  LIG1        0.0253
     35 H           5.5095   -0.2573    2.9474 H       1  LIG1        0.0253
     36 H           2.1647   -0.3331    1.6258 H       1  LIG1        0.1712
     37 H           2.0760    3.1564   -2.0178 H       1  LIG1        0.1442
     38 H           3.2334    3.6619   -3.2196 H       1  LIG1        0.1442
@<TRIPOS>BOND
     1     1     3   ar
     2     1     7   ar
     3     2     4   ar
     4     2     7   ar
     5     3     8   ar
     6     4     8   ar
     7     5    16   ar
     8     5    17   ar
     9     6     9   ar
    10     6    10   ar
    11     6    11   ar
    12     7     9    1
    13     8    21    1
    14     9    19   ar
    15    10    16   ar
    16    10    18   ar
    17    11    17   ar
    18    11    20    1
    19    12    15    1
    20    13    15    1
    21    14    15    1
    22    15    18    1
    23    18    19   ar
    24     1    22    1
    25     2    23    1
    26     3    24    1
    27     4    25    1
    28     5    26    1
    29    12    27    1
    30    12    28    1
    31    12    29    1
    32    13    30    1
    33    13    31    1
    34    13    32    1
    35    14    33    1
    36    14    34    1
    37    14    35    1
    38    19    36    1
    39    20    37    1
    40    20    38    1
