@<TRIPOS>MOLECULE
DB07595
 39 42 0 0 0
SMALL
USER_CHARGES

@<TRIPOS>ATOM
      1 C           6.1019   -3.2972    1.1159 C.ar    1  LIG1       -0.0605
      2 C           5.9039   -2.2195    0.2527 C.ar    1  LIG1       -0.0527
      3 C           5.6550   -3.2253    2.4353 C.ar    1  LIG1       -0.0479
      4 C          -0.3828    3.5058   -0.5123 C.ar    1  LIG1       -0.0390
      5 C          -0.0519    1.4644    0.7158 C.ar    1  LIG1       -0.0390
      6 C           6.6623    1.6170   -3.1201 C.2     1  LIG1       -0.0020
      7 C           4.8123   -0.9979    2.0284 C.ar    1  LIG1       -0.0385
      8 C           3.9376    0.8677    0.0100 C.3     1  LIG1        0.0044
      9 C          -1.7034    3.1238   -0.6859 C.ar    1  LIG1        0.0271
     10 C          -1.3873    1.1740    0.4873 C.ar    1  LIG1        0.0271
     11 C           6.0451    2.7545   -3.6728 C.2     1  LIG1        0.0135
     12 C           5.2592   -1.0699    0.7090 C.ar    1  LIG1        0.0014
     13 C           0.4521    2.6547    0.2031 C.ar    1  LIG1       -0.0278
     14 C           5.0102   -2.0755    2.8916 C.ar    1  LIG1        0.0182
     15 C           5.0537    0.0495   -0.1878 C.3     1  LIG1        0.0762
     16 C           5.8592    1.1862   -1.9950 C.3     1  LIG1        0.1530
     17 C           3.7465    1.9336   -0.8482 C.3     1  LIG1        0.1197
     18 C           1.8923    3.0188    0.4205 C.3     1  LIG1        0.0351
     19 N          -2.2290    1.9758   -0.2029 N.ar    1  LIG1       -0.2646
     20 N           6.0259    0.1474   -1.1410 N.3     1  LIG1       -0.2286
     21 N           4.9098    3.0162   -2.9211 N.pl3   1  LIG1       -0.2584
     22 N           4.7835    2.0477   -1.8748 N.3     1  LIG1       -0.2312
     23 N           2.6824    2.8267   -0.7685 N.3     1  LIG1       -0.3253
     24 BR          4.4064   -1.9781    4.6801 Br      1  LIG1       -0.0508
     25 H           6.6041   -4.1923    0.7609 H       1  LIG1        0.0623
     26 H           6.2568   -2.2915   -0.7733 H       1  LIG1        0.0630
     27 H           5.8172   -4.0741    3.0950 H       1  LIG1        0.0634
     28 H          -0.0201    4.4408   -0.9258 H       1  LIG1        0.0642
     29 H           0.5743    0.7802    1.2779 H       1  LIG1        0.0642
     30 H           7.5717    1.1584   -3.4817 H       1  LIG1        0.0676
     31 H           4.3094   -0.1003    2.3834 H       1  LIG1        0.0641
     32 H           3.2351    0.6756    0.8160 H       1  LIG1        0.0682
     33 H          -2.3952    3.7520   -1.2376 H       1  LIG1        0.0839
     34 H          -1.8286    0.2581    0.8661 H       1  LIG1        0.0839
     35 H           6.3103    3.3810   -4.5121 H       1  LIG1        0.0807
     36 H           1.9841    4.0685    0.7205 H       1  LIG1        0.0517
     37 H           2.3349    2.4128    1.2182 H       1  LIG1        0.0517
     38 H           4.2399    3.7637   -3.0501 H       1  LIG1        0.1732
     39 H           2.4549    3.3666   -1.5928 H       1  LIG1        0.1483
@<TRIPOS>BOND
     1     1     2   ar
     2     1     3   ar
     3     2    12   ar
     4     3    14   ar
     5     4     9   ar
     6     4    13   ar
     7     5    10   ar
     8     5    13   ar
     9     6    11    2
    10     6    16    1
    11     7    12   ar
    12     7    14   ar
    13     8    15    1
    14     8    17    1
    15     9    19   ar
    16    10    19   ar
    17    11    21    1
    18    12    15    1
    19    13    18    1
    20    14    24    1
    21    15    20    1
    22    16    20    1
    23    16    22    1
    24    17    22    1
    25    17    23    1
    26    18    23    1
    27    21    22    1
    28     1    25    1
    29     2    26    1
    30     3    27    1
    31     4    28    1
    32     5    29    1
    33     6    30    1
    34     7    31    1
    35     8    32    1
    36     9    33    1
    37    10    34    1
    38    11    35    1
    39    18    36    1
    40    18    37    1
    41    21    38    1
    42    23    39    1
