@<TRIPOS>MOLECULE
DB07654
 45 48 0 0 0
SMALL
USER_CHARGES

@<TRIPOS>ATOM
      1 C           0.0006   -0.3529    2.9401 C.ar    1  LIG1       -0.0622
      2 C           5.9637   -3.3525    2.5251 C.ar    1  LIG1       -0.0622
      3 C           0.5813    0.9150    2.9097 C.ar    1  LIG1       -0.0616
      4 C           0.4537   -1.3483    2.0743 C.ar    1  LIG1       -0.0616
      5 C           5.5834   -2.1609    3.1424 C.ar    1  LIG1       -0.0616
      6 C           5.8041   -3.5064    1.1480 C.ar    1  LIG1       -0.0616
      7 C           1.6150    1.1874    2.0137 C.ar    1  LIG1       -0.0542
      8 C           1.4873   -1.0759    1.1782 C.ar    1  LIG1       -0.0542
      9 C           5.0436   -1.1232    2.3826 C.ar    1  LIG1       -0.0523
     10 C           5.2642   -2.4688    0.3882 C.ar    1  LIG1       -0.0523
     11 C           4.0966    2.8882   -2.8577 C.ar    1  LIG1        0.1202
     12 C           3.2162    1.4266   -0.8164 C.ar    1  LIG1        0.0755
     13 C           2.0680    0.1919    1.1479 C.ar    1  LIG1       -0.0148
     14 C           4.8840   -1.2771    1.0054 C.ar    1  LIG1        0.0060
     15 C           3.1313    0.4720    0.2258 C.ar    1  LIG1        0.0283
     16 C           4.3282   -0.2066    0.2219 C.ar    1  LIG1        0.0999
     17 C           2.4002    2.4159   -1.3597 C.ar    1  LIG1        0.1339
     18 C           4.4723    1.2633   -1.3919 C.ar    1  LIG1        0.1849
     19 C           0.7673    3.9601   -0.3066 C.3     1  LIG1        0.0016
     20 C           0.1126    1.6069   -0.8381 C.3     1  LIG1        0.0358
     21 C          -1.0723    2.0239   -1.6899 C.3     1  LIG1        0.0588
     22 N           2.8533    3.1560   -2.3978 N.ar    1  LIG1       -0.2206
     23 N           4.9776    1.9652   -2.4216 N.ar    1  LIG1       -0.2115
     24 N           1.1128    2.6584   -0.8473 N.pl3   1  LIG1       -0.3159
     25 O           5.1475    0.2644   -0.7543 O.2     1  LIG1       -0.2895
     26 O          -2.0337    0.9763   -1.7068 O.3     1  LIG1       -0.3947
     27 H          -0.8035   -0.5655    3.6384 H       1  LIG1        0.0622
     28 H           6.3846   -4.1603    3.1167 H       1  LIG1        0.0622
     29 H           0.2297    1.6898    3.5846 H       1  LIG1        0.0623
     30 H           0.0022   -2.3358    2.0989 H       1  LIG1        0.0623
     31 H           5.7075   -2.0413    4.2149 H       1  LIG1        0.0623
     32 H           6.1013   -4.4340    0.6672 H       1  LIG1        0.0623
     33 H           2.0575    2.1808    2.0022 H       1  LIG1        0.0629
     34 H           1.8292   -1.8628    0.5098 H       1  LIG1        0.0629
     35 H           4.7545   -0.1995    2.8781 H       1  LIG1        0.0630
     36 H           5.1453   -2.6047   -0.6842 H       1  LIG1        0.0630
     37 H           4.4291    3.4991   -3.6901 H       1  LIG1        0.1064
     38 H          -0.2688    3.9593    0.0418 H       1  LIG1        0.0432
     39 H           0.8797    4.7303   -1.0746 H       1  LIG1        0.0432
     40 H           1.4213    4.2057    0.5344 H       1  LIG1        0.0432
     41 H          -0.1878    1.4284    0.1993 H       1  LIG1        0.0493
     42 H           0.5697    0.6978   -1.2402 H       1  LIG1        0.0493
     43 H          -0.7489    2.2021   -2.7202 H       1  LIG1        0.0580
     44 H          -1.5471    2.9313   -1.3028 H       1  LIG1        0.0580
     45 H          -2.7708    1.2822   -2.2594 H       1  LIG1        0.2101
@<TRIPOS>BOND
     1     1     3   ar
     2     1     4   ar
     3     2     5   ar
     4     2     6   ar
     5     3     7   ar
     6     4     8   ar
     7     5     9   ar
     8     6    10   ar
     9     7    13   ar
    10     8    13   ar
    11     9    14   ar
    12    10    14   ar
    13    11    22   ar
    14    11    23   ar
    15    12    15   ar
    16    12    17   ar
    17    12    18   ar
    18    13    15    1
    19    14    16    1
    20    15    16   ar
    21    16    25   ar
    22    17    22   ar
    23    17    24    1
    24    18    23   ar
    25    18    25   ar
    26    19    24    1
    27    20    21    1
    28    20    24    1
    29    21    26    1
    30     1    27    1
    31     2    28    1
    32     3    29    1
    33     4    30    1
    34     5    31    1
    35     6    32    1
    36     7    33    1
    37     8    34    1
    38     9    35    1
    39    10    36    1
    40    11    37    1
    41    19    38    1
    42    19    39    1
    43    19    40    1
    44    20    41    1
    45    20    42    1
    46    21    43    1
    47    21    44    1
    48    26    45    1
