@<TRIPOS>MOLECULE
DB07655
 43 46 0 0 0
SMALL
USER_CHARGES

@<TRIPOS>ATOM
      1 C          -1.2195    3.1061    0.0483 C.ar    1  LIG1       -0.0622
      2 C           0.6616   -1.6989    3.9425 C.ar    1  LIG1       -0.0622
      3 C          -0.0388    3.8242    0.2377 C.ar    1  LIG1       -0.0616
      4 C          -1.1702    1.7313   -0.1829 C.ar    1  LIG1       -0.0616
      5 C           0.9508   -0.3349    3.9820 C.ar    1  LIG1       -0.0616
      6 C           1.0907   -2.4719    2.8636 C.ar    1  LIG1       -0.0616
      7 C           1.1912    3.1676    0.1958 C.ar    1  LIG1       -0.0543
      8 C           0.0598    1.0748   -0.2249 C.ar    1  LIG1       -0.0543
      9 C           1.6689    0.2561    2.9425 C.ar    1  LIG1       -0.0531
     10 C           1.8088   -1.8809    1.8241 C.ar    1  LIG1       -0.0531
     11 C           5.9831    1.1393   -2.1439 C.ar    1  LIG1        0.1194
     12 C           3.6136    1.3229   -0.9433 C.ar    1  LIG1        0.0649
     13 C           1.2405    1.7929   -0.0355 C.ar    1  LIG1       -0.0156
     14 C           2.0981   -0.5170    1.8635 C.ar    1  LIG1       -0.0035
     15 C           2.5082    1.1158   -0.0790 C.ar    1  LIG1        0.0179
     16 C           2.8436    0.0959    0.7861 C.ar    1  LIG1        0.0476
     17 C           4.5946    0.4116   -0.5718 C.ar    1  LIG1        0.1350
     18 C           3.9196    2.1718   -2.0060 C.ar    1  LIG1        0.1308
     19 C           3.3752    4.2754   -3.2323 C.3     1  LIG1        0.0330
     20 C           3.5249    3.8785   -4.6895 C.3     1  LIG1        0.0586
     21 N           5.8080    0.2651   -1.1321 N.ar    1  LIG1       -0.2206
     22 N           5.1254    2.0738   -2.6121 N.ar    1  LIG1       -0.2209
     23 N           4.1118   -0.3246    0.4772 N.ar    1  LIG1       -0.2979
     24 N           2.9956    3.1313   -2.4593 N.pl3   1  LIG1       -0.3265
     25 O           4.5510    2.9014   -4.8097 O.3     1  LIG1       -0.3947
     26 H          -2.1774    3.6170    0.0820 H       1  LIG1        0.0622
     27 H           0.1029   -2.1592    4.7523 H       1  LIG1        0.0622
     28 H          -0.0769    4.8943    0.4190 H       1  LIG1        0.0623
     29 H          -2.0897    1.1723   -0.3290 H       1  LIG1        0.0623
     30 H           0.6164    0.2668    4.8221 H       1  LIG1        0.0623
     31 H           0.8664   -3.5342    2.8334 H       1  LIG1        0.0623
     32 H           2.1029    3.7414    0.3453 H       1  LIG1        0.0629
     33 H           0.0812    0.0026   -0.4061 H       1  LIG1        0.0629
     34 H           1.8887    1.3200    2.9892 H       1  LIG1        0.0629
     35 H           2.1353   -2.4969    0.9896 H       1  LIG1        0.0629
     36 H           6.9402    1.0865   -2.6519 H       1  LIG1        0.1063
     37 H           4.3149    4.6657   -2.8286 H       1  LIG1        0.0490
     38 H           2.5954    5.0351   -3.1227 H       1  LIG1        0.0490
     39 H           3.8151    4.7483   -5.2870 H       1  LIG1        0.0580
     40 H           2.5948    3.4635   -5.0914 H       1  LIG1        0.0580
     41 H           4.6168   -1.0641    0.9466 H       1  LIG1        0.1543
     42 H           2.0317    2.9886   -2.2174 H       1  LIG1        0.1481
     43 H           4.6137    2.6765   -5.7519 H       1  LIG1        0.2101
@<TRIPOS>BOND
     1     1     3   ar
     2     1     4   ar
     3     2     5   ar
     4     2     6   ar
     5     3     7   ar
     6     4     8   ar
     7     5     9   ar
     8     6    10   ar
     9     7    13   ar
    10     8    13   ar
    11     9    14   ar
    12    10    14   ar
    13    11    21   ar
    14    11    22   ar
    15    12    15   ar
    16    12    17   ar
    17    12    18   ar
    18    13    15    1
    19    14    16    1
    20    15    16   ar
    21    16    23   ar
    22    17    21   ar
    23    17    23   ar
    24    18    22   ar
    25    18    24    1
    26    19    20    1
    27    19    24    1
    28    20    25    1
    29     1    26    1
    30     2    27    1
    31     3    28    1
    32     4    29    1
    33     5    30    1
    34     6    31    1
    35     7    32    1
    36     8    33    1
    37     9    34    1
    38    10    35    1
    39    11    36    1
    40    19    37    1
    41    19    38    1
    42    20    39    1
    43    20    40    1
    44    23    41    1
    45    24    42    1
    46    25    43    1
