@<TRIPOS>MOLECULE
DB08191
 37 40 0 0 0
SMALL
USER_CHARGES

@<TRIPOS>ATOM
      1 C          -1.4562    2.7869    0.5171 C.ar    1  LIG1        0.0000
      2 C          -1.2665    1.8125   -0.4627 C.ar    1  LIG1        0.0000
      3 C          -0.3550    3.4223    1.0913 C.ar    1  LIG1        0.0000
      4 C           0.0243    1.4733   -0.8685 C.ar    1  LIG1        0.0000
      5 C           0.9357    3.0831    0.6856 C.ar    1  LIG1        0.0000
      6 C           5.6665   -2.8227    0.5212 C.ar    1  LIG1        0.0000
      7 C           5.3394   -1.1113    2.1949 C.ar    1  LIG1        0.0000
      8 C           5.6841   -3.7962    1.5199 C.ar    1  LIG1        0.0000
      9 C           5.3570   -2.0848    3.1937 C.ar    1  LIG1        0.0000
     10 C           3.1624    0.7388   -0.0707 C.ar    1  LIG1        0.0000
     11 C           3.0735    2.4254   -1.7675 C.ar    1  LIG1        0.0000
     12 C           6.5436   -0.2691   -1.0148 C.ar    1  LIG1        0.0000
     13 C           4.4574    0.4435   -0.5262 C.ar    1  LIG1        0.0000
     14 C           1.1253    2.1087   -0.2943 C.ar    1  LIG1        0.0000
     15 C           5.4942   -1.4802    0.8586 C.ar    1  LIG1        0.0000
     16 C           2.4623    1.7573   -0.7150 C.ar    1  LIG1        0.0000
     17 C           5.4760   -0.4791   -0.1687 C.ar    1  LIG1        0.0000
     18 C           5.5293   -3.4272    2.8562 C.ar    1  LIG1        0.0000
     19 C           4.9479    1.1926   -1.5917 C.ar    1  LIG1        0.0000
     20 C           5.5459   -4.4550    3.9096 C.2     1  LIG1        0.0000
     21 N           4.3156    2.1841   -2.2477 N.ar    1  LIG1        0.0000
     22 N           6.2125    0.7472   -1.8732 N.ar    1  LIG1        0.0000
     23 O           5.4013   -4.0883    5.1357 O.co2   1  LIG1       -0.5000
     24 O           5.7049   -5.6874    3.5709 O.co2   1  LIG1       -0.5000
     25 H          -2.4613    3.0520    0.8316 H       1  LIG1        0.0000
     26 H          -2.1238    1.3189   -0.9110 H       1  LIG1        0.0000
     27 H          -0.5021    4.1821    1.8532 H       1  LIG1        0.0000
     28 H           0.1556    0.7119   -1.6336 H       1  LIG1        0.0000
     29 H           1.7843    3.5874    1.1416 H       1  LIG1        0.0000
     30 H           5.7885   -3.1263   -0.5159 H       1  LIG1        0.0000
     31 H           5.2037   -0.0691    2.4739 H       1  LIG1        0.0000
     32 H           5.8184   -4.8394    1.2460 H       1  LIG1        0.0000
     33 H           5.2354   -1.7863    4.2317 H       1  LIG1        0.0000
     34 H           2.7266    0.1882    0.7582 H       1  LIG1        0.0000
     35 H           2.5527    3.2241   -2.2913 H       1  LIG1        0.0000
     36 H           7.5114   -0.7471   -1.0863 H       1  LIG1        0.0000
     37 H           6.8097    1.1142   -2.6011 H       1  LIG1        0.0000
@<TRIPOS>BOND
     1     1     2   ar
     2     1     3   ar
     3     2     4   ar
     4     3     5   ar
     5     4    14   ar
     6     5    14   ar
     7     6     8   ar
     8     6    15   ar
     9     7     9   ar
    10     7    15   ar
    11     8    18   ar
    12     9    18   ar
    13    10    13   ar
    14    10    16   ar
    15    11    16   ar
    16    11    21   ar
    17    12    17   ar
    18    12    22   ar
    19    13    17   ar
    20    13    19   ar
    21    14    16    1
    22    15    17    1
    23    18    20    1
    24    19    21   ar
    25    19    22   ar
    26    20    23   ar
    27    20    24   ar
    28     1    25    1
    29     2    26    1
    30     3    27    1
    31     4    28    1
    32     5    29    1
    33     6    30    1
    34     7    31    1
    35     8    32    1
    36     9    33    1
    37    10    34    1
    38    11    35    1
    39    12    36    1
    40    22    37    1
