@<TRIPOS>MOLECULE
DB08757
 25 26 0 0 0
SMALL
USER_CHARGES

@<TRIPOS>ATOM
      1 C           6.0864   -3.4824    1.1573 C.ar    1  LIG1       -0.0615
      2 C           6.1299   -3.4632    2.5400 C.ar    1  LIG1       -0.0607
      3 C           5.4539   -2.4678    0.4690 C.ar    1  LIG1       -0.0508
      4 C           5.5408   -2.4274    3.2431 C.ar    1  LIG1       -0.0428
      5 C           2.9132    0.1304    0.6930 C.ar    1  LIG1       -0.0278
      6 C           2.6634    1.1604   -0.2195 C.ar    1  LIG1       -0.0231
      7 C           4.8518   -1.4219    1.1710 C.ar    1  LIG1        0.0239
      8 C           4.9046   -1.4049    2.5678 C.ar    1  LIG1        0.0504
      9 C           4.1730   -0.3324    0.4411 C.ar    1  LIG1        0.0911
     10 C           3.7900    1.2786   -1.0038 C.ar    1  LIG1        0.1458
     11 C           3.9785    2.2312   -2.1008 C.2     1  LIG1        0.2801
     12 N           5.3111    3.1309   -3.8148 N.3     1  LIG1       -0.2548
     13 N           5.1355    2.2428   -2.7919 N.am    1  LIG1       -0.2483
     14 O           3.0901    3.0122   -2.3879 O.2     1  LIG1       -0.2681
     15 O           4.6903    0.3642   -0.5846 O.2     1  LIG1       -0.3041
     16 CL          4.1663   -0.1055    3.4511 Cl      1  LIG1       -0.0835
     17 H           6.5491   -4.2938    0.6152 H       1  LIG1        0.0623
     18 H           6.6266   -4.2603    3.0733 H       1  LIG1        0.0623
     19 H           5.4213   -2.4844   -0.6103 H       1  LIG1        0.0630
     20 H           5.5788   -2.4185    4.3224 H       1  LIG1        0.0638
     21 H           2.2389   -0.2276    1.4569 H       1  LIG1        0.0651
     22 H           1.7603    1.7475   -0.2968 H       1  LIG1        0.0653
     23 H           5.3250    4.0510   -3.4006 H       1  LIG1        0.1411
     24 H           6.2347    2.9663   -4.1863 H       1  LIG1        0.1411
     25 H           5.8434    1.6204   -2.5631 H       1  LIG1        0.1701
@<TRIPOS>BOND
     1     1     2   ar
     2     1     3   ar
     3     2     4   ar
     4     3     7   ar
     5     4     8   ar
     6     5     6   ar
     7     5     9   ar
     8     6    10   ar
     9     7     8   ar
    10     7     9    1
    11     8    16    1
    12     9    15   ar
    13    10    11    1
    14    10    15   ar
    15    11    13   am
    16    11    14    2
    17    12    13    1
    18     1    17    1
    19     2    18    1
    20     3    19    1
    21     4    20    1
    22     5    21    1
    23     6    22    1
    24    12    23    1
    25    12    24    1
    26    13    25    1
