@<TRIPOS>MOLECULE
DB08383
 44 47 0 0 0
SMALL
USER_CHARGES

@<TRIPOS>ATOM
      1 C           6.0133   -3.2333    1.8546 C.ar    1  LIG1       -0.0543
      2 C           1.2826    3.1096    0.0847 C.ar    1  LIG1       -0.0501
      3 C           0.0872    1.0152   -0.0622 C.ar    1  LIG1       -0.0501
      4 C           2.5364    2.3246   -2.8157 C.ar    1  LIG1       -0.0504
      5 C           4.9312    2.3924   -2.5036 C.ar    1  LIG1       -0.0504
      6 C           0.0714    3.8012    0.0798 C.ar    1  LIG1       -0.0311
      7 C          -1.1240    1.7070   -0.0672 C.ar    1  LIG1       -0.0311
      8 C           2.6623    3.1189   -3.9553 C.ar    1  LIG1       -0.0311
      9 C           5.0572    3.1868   -3.6432 C.ar    1  LIG1       -0.0311
     10 C           5.2854   -2.5114    0.8651 C.ar    1  LIG1       -0.0442
     11 C           6.0835   -2.5486    3.0477 C.ar    1  LIG1       -0.0240
     12 C           1.2906    1.7165    0.0136 C.ar    1  LIG1        0.0023
     13 C           3.6708    1.9614   -2.0897 C.ar    1  LIG1       -0.0018
     14 C          -1.1319    3.1001    0.0038 C.ar    1  LIG1        0.0746
     15 C           3.9227    3.5499   -4.3692 C.ar    1  LIG1        0.0746
     16 C           2.5371    1.0038    0.0182 C.ar    1  LIG1        0.0945
     17 C           3.5406    1.1405   -0.9118 C.ar    1  LIG1        0.0656
     18 C           4.8266   -1.3023    1.3399 C.ar    1  LIG1        0.0521
     19 C           4.0712   -0.3364    0.6354 C.ar    1  LIG1        0.1365
     20 C          -3.5063    2.9950   -0.0804 C.3     1  LIG1        0.0422
     21 C           2.8449    4.6592   -6.1758 C.3     1  LIG1        0.0422
     22 N           2.8737    0.0832    0.9787 N.ar    1  LIG1       -0.2296
     23 N           4.5167    0.2761   -0.5030 N.ar    1  LIG1       -0.2964
     24 O          -2.3140    3.7746   -0.0008 O.3     1  LIG1       -0.3493
     25 O           4.0456    4.3251   -5.4812 O.3     1  LIG1       -0.3493
     26 S           5.2738   -1.0416    2.9722 S.2     1  LIG1       -0.0944
     27 H           6.4621   -4.2058    1.6994 H       1  LIG1        0.0628
     28 H           2.2123    3.6706    0.1446 H       1  LIG1        0.0631
     29 H           0.0766   -0.0707   -0.1187 H       1  LIG1        0.0631
     30 H           1.5470    1.9965   -2.5059 H       1  LIG1        0.0630
     31 H           5.8251    2.1178   -1.9485 H       1  LIG1        0.0630
     32 H           0.0711    4.8865    0.1354 H       1  LIG1        0.0650
     33 H          -2.0579    1.1546   -0.1273 H       1  LIG1        0.0650
     34 H           1.7750    3.3986   -4.5166 H       1  LIG1        0.0650
     35 H           6.0417    3.5196   -3.9608 H       1  LIG1        0.0650
     36 H           5.1107   -2.8700   -0.1418 H       1  LIG1        0.0636
     37 H           6.5715   -2.8610    3.9599 H       1  LIG1        0.0701
     38 H          -4.3761    3.6565   -0.0753 H       1  LIG1        0.0535
     39 H          -3.5517    2.3093    0.7695 H       1  LIG1        0.0535
     40 H          -3.4938    2.4203   -1.0095 H       1  LIG1        0.0535
     41 H           3.0851    5.2801   -7.0423 H       1  LIG1        0.0535
     42 H           2.1720    5.1975   -5.5036 H       1  LIG1        0.0535
     43 H           2.3613    3.7391   -6.5124 H       1  LIG1        0.0535
     44 H           5.4058    0.1163   -0.9591 H       1  LIG1        0.1544
@<TRIPOS>BOND
     1     1    10   ar
     2     1    11   ar
     3     2     6   ar
     4     2    12   ar
     5     3     7   ar
     6     3    12   ar
     7     4     8   ar
     8     4    13   ar
     9     5     9   ar
    10     5    13   ar
    11     6    14   ar
    12     7    14   ar
    13     8    15   ar
    14     9    15   ar
    15    10    18   ar
    16    11    26   ar
    17    12    16    1
    18    13    17    1
    19    14    24    1
    20    15    25    1
    21    16    17   ar
    22    16    22   ar
    23    17    23   ar
    24    18    19    1
    25    18    26   ar
    26    19    22   ar
    27    19    23   ar
    28    20    24    1
    29    21    25    1
    30     1    27    1
    31     2    28    1
    32     3    29    1
    33     4    30    1
    34     5    31    1
    35     6    32    1
    36     7    33    1
    37     8    34    1
    38     9    35    1
    39    10    36    1
    40    11    37    1
    41    20    38    1
    42    20    39    1
    43    20    40    1
    44    21    41    1
    45    21    42    1
    46    21    43    1
    47    23    44    1
