@<TRIPOS>MOLECULE
ZINC03852046
 38 41 0 0 0
SMALL
USER_CHARGES

@<TRIPOS>ATOM
      1 C1         -0.0126    1.0758    0.0080 C.ar    1  <0>1       -0.0526
      2 C2         -1.2161    1.7506    0.0173 C.ar    1  <0>1       -0.0428
      3 C3         -1.2362    3.1349    0.0297 C.ar    1  <0>1        0.0410
      4 C4         -0.0504    3.8493    0.0222 C.ar    1  <0>1       -0.0428
      5 C5          1.1585    3.1842    0.0076 C.ar    1  <0>1       -0.0526
      6 C6          1.1844    1.7904    0.0004 C.ar    1  <0>1       -0.0156
      7 C7          2.4805    1.0705   -0.0149 C.ar    1  <0>1        0.0129
      8 C8          2.8625    0.0638    0.8142 C.ar    1  <0>1        0.0202
      9 N1          4.1263   -0.3416    0.4824 N.ar    1  <0>1       -0.3001
     10 C9          4.6025    0.3983   -0.5654 C.ar    1  <0>1        0.1510
     11 C10         3.6051    1.3075   -0.9222 C.ar    1  <0>1        0.0702
     12 C11         3.8622    2.2302   -2.0301 C.ar    1  <0>1        0.1554
     13 N2          2.9640    3.1073   -2.4125 N.2     1  <0>1       -0.2815
     14 N3          5.0927    2.1372   -2.6567 N.ar    1  <0>1       -0.2394
     15 C12         5.9950    1.2139   -2.2294 C.ar    1  <0>1        0.1174
     16 N4          5.7630    0.3977   -1.2460 N.ar    1  <0>1       -0.2174
     17 N5          5.3989    2.9677   -3.6971 N.pl3   1  <0>1       -0.2955
     18 C13         4.8343   -1.3646    1.1273 C.ar    1  <0>1        0.0481
     19 C14         5.4323   -2.3727    0.3830 C.ar    1  <0>1       -0.0364
     20 C15         6.1335   -3.3771    1.0207 C.ar    1  <0>1       -0.0414
     21 C16         6.2312   -3.3854    2.4011 C.ar    1  <0>1        0.0411
     22 C17         5.6321   -2.3844    3.1455 C.ar    1  <0>1       -0.0414
     23 C18         4.9342   -1.3749    2.5122 C.ar    1  <0>1       -0.0364
     24 Cl1         7.1073   -4.6533    3.2002 Cl      1  <0>1       -0.0835
     25 Cl2        -2.7537    3.9778    0.0481 Cl      1  <0>1       -0.0835
     26 H1          0.0021   -0.0041    0.0020 H       1  <0>1        0.0624
     27 H2         -2.1440    1.1980    0.0191 H       1  <0>1        0.0632
     28 H3         -0.0715    4.9291    0.0275 H       1  <0>1        0.0632
     29 H4          2.0830    3.7424    0.0014 H       1  <0>1        0.0624
     30 H5          2.2616   -0.3525    1.6091 H       1  <0>1        0.0820
     31 H6          3.1561    3.7086   -3.1490 H       1  <0>1        0.1884
     32 H7          6.9497    1.1568   -2.7311 H       1  <0>1        0.1046
     33 H8          5.8358    3.8151   -3.3668 H       1  <0>1        0.1627
     34 H9          5.9831    2.4996   -4.3735 H       1  <0>1        0.1627
     35 H10         5.3525   -2.3691   -0.6941 H       1  <0>1        0.0639
     36 H11         6.6026   -4.1590    0.4419 H       1  <0>1        0.0633
     37 H12         5.7101   -2.3929    4.2227 H       1  <0>1        0.0633
     38 H13         4.4662   -0.5943    3.0936 H       1  <0>1        0.0639
@<TRIPOS>BOND
     1     1     6   ar
     2     1     2   ar
     3     1    26    1
     4     2     3   ar
     5     2    27    1
     6     3     4   ar
     7     3    25    1
     8     4     5   ar
     9     4    28    1
    10     5     6   ar
    11     5    29    1
    12     6     7    1
    13     7    11   ar
    14     7     8   ar
    15     8     9   ar
    16     8    30    1
    17     9    10   ar
    18     9    18    1
    19    10    16   ar
    20    10    11   ar
    21    11    12   ar
    22    12    13    2
    23    12    14   ar
    24    13    31    1
    25    14    15   ar
    26    14    17    1
    27    15    16   ar
    28    15    32    1
    29    17    33    1
    30    17    34    1
    31    18    23   ar
    32    18    19   ar
    33    19    20   ar
    34    19    35    1
    35    20    21   ar
    36    20    36    1
    37    21    22   ar
    38    21    24    1
    39    22    23   ar
    40    22    37    1
    41    23    38    1
