@<TRIPOS>MOLECULE
ZINC03852038
   38    41     0     0     0
SMALL
USER_CHARGES
9-(4-chlorophenyl)-5-imino-7-phenyl-2,4,9-triazabicyclo[4.3.0]nona-2,7,10-trien-4-amine
@<TRIPOS>ATOM
      1 C1          0.0021   -0.0041    0.0020 C.ar      1 <0>        -0.1185
      2 C2         -0.0167    1.3791    0.0096 C.ar      1 <0>        -0.1233
      3 C3          1.1673    2.0879    0.0021 C.ar      1 <0>        -0.0653
      4 C4          2.3839    1.4074   -0.0136 C.ar      1 <0>        -0.0135
      5 C5          2.3966    0.0134   -0.0207 C.ar      1 <0>        -0.1085
      6 C6          1.2063   -0.6848   -0.0127 C.ar      1 <0>        -0.1257
      7 C7          3.6594    2.1633   -0.0217 C.2       1 <0>        -0.0510
      8 C8          4.7218    1.9764    0.8048 C.2       1 <0>         0.0250
      9 N1          5.7092    2.8663    0.4818 N.pl3     1 <0>        -0.3827
     10 C9          5.3100    3.6618   -0.5574 C.2       1 <0>         0.2693
     11 C10         4.0216    3.2634   -0.9176 C.2       1 <0>        -0.1627
     12 C11         3.3542    3.9623   -2.0180 C.2       1 <0>         0.4654
     13 N2          2.1435    3.6335   -2.4033 N.2       1 <0>        -0.7080
     14 N3          4.0551    4.9841   -2.6345 N.pl3     1 <0>        -0.4147
     15 C12         5.3078    5.2927   -2.2047 C.2       1 <0>         0.3607
     16 N4          5.8960    4.6701   -1.2283 N.2       1 <0>        -0.5212
     17 N5          3.4921    5.6782   -3.6676 N.3       1 <0>        -0.6041
     18 C13         6.9499    2.9549    1.1272 C.ar      1 <0>         0.1232
     19 C14         8.1216    2.9708    0.3825 C.ar      1 <0>        -0.0861
     20 C15         9.3429    3.0635    1.0208 C.ar      1 <0>        -0.0936
     21 C16         9.3999    3.1294    2.4019 C.ar      1 <0>        -0.0312
     22 C17         8.2337    3.1084    3.1467 C.ar      1 <0>        -0.0944
     23 C18         7.0097    3.0211    2.5129 C.ar      1 <0>        -0.1029
     24 Cl1        10.9368    3.2392    3.2016 Cl        1 <0>        -0.0584
     25 H1         -0.9270   -0.5547    0.0079 H         1 <0>         0.1183
     26 H2         -0.9598    1.9053    0.0169 H         1 <0>         0.1192
     27 H3          1.1515    3.1678    0.0077 H         1 <0>         0.1192
     28 H4          3.3361   -0.5190   -0.0329 H         1 <0>         0.1191
     29 H5          1.2148   -1.7647   -0.0182 H         1 <0>         0.1202
     30 H6          4.7786    1.2392    1.5920 H         1 <0>         0.1837
     31 H7          1.7210    4.1104   -3.1346 H         1 <0>         0.3445
     32 H8          5.8385    6.0934   -2.6983 H         1 <0>         0.1980
     33 H9          2.9812    6.4797   -3.3288 H         1 <0>         0.3570
     34 H10         4.1908    5.9533   -4.3416 H         1 <0>         0.3732
     35 H11         8.0779    2.9150   -0.6951 H         1 <0>         0.1396
     36 H12        10.2544    3.0805    0.4418 H         1 <0>         0.1438
     37 H13         8.2807    3.1599    4.2244 H         1 <0>         0.1446
     38 H14         6.0999    3.0040    3.0945 H         1 <0>         0.1417
@<TRIPOS>BOND
     1    1    6 ar
     2    1    2 ar
     3    1   25 1
     4    2    3 ar
     5    2   26 1
     6    3    4 ar
     7    3   27 1
     8    4    5 ar
     9    4    7 1
    10    5    6 ar
    11    5   28 1
    12    6   29 1
    13    7   11 1
    14    7    8 2
    15    8    9 1
    16    8   30 1
    17    9   10 1
    18    9   18 1
    19   10   16 1
    20   10   11 2
    21   11   12 1
    22   12   13 2
    23   12   14 1
    24   13   31 1
    25   14   15 1
    26   14   17 1
    27   15   16 2
    28   15   32 1
    29   17   33 1
    30   17   34 1
    31   18   23 ar
    32   18   19 ar
    33   19   20 ar
    34   19   35 1
    35   20   21 ar
    36   20   36 1
    37   21   22 ar
    38   21   24 1
    39   22   23 ar
    40   22   37 1
    41   23   38 1