@<TRIPOS>MOLECULE
DB00714
 38 41 0 0 0
SMALL
USER_CHARGES

@<TRIPOS>ATOM
      1 C          -0.3726    3.6167   -0.1120 C.ar    1  LIG1       -0.0613
      2 C           0.8754    3.3031   -0.6514 C.ar    1  LIG1       -0.0540
      3 C          -1.0933    2.6554    0.5874 C.ar    1  LIG1       -0.0588
      4 C           4.7179    0.1831   -0.9465 C.ar    1  LIG1       -0.0557
      5 C           5.3533    0.9406   -1.9254 C.ar    1  LIG1       -0.0291
      6 C           1.4272    2.0177   -0.5127 C.ar    1  LIG1       -0.0135
      7 C           2.7683    1.6611   -1.0337 C.ar    1  LIG1        0.0178
      8 C           3.4283    0.5250   -0.5116 C.ar    1  LIG1       -0.0386
      9 C          -0.5810    1.3631    0.7427 C.ar    1  LIG1       -0.0476
     10 C           0.6776    1.0456    0.1974 C.ar    1  LIG1       -0.0500
     11 C           4.7075    2.0444   -2.4706 C.ar    1  LIG1        0.1019
     12 C           3.4299    2.4013   -2.0296 C.ar    1  LIG1        0.1095
     13 C           2.7526   -0.3084    0.5564 C.3     1  LIG1       -0.0351
     14 C          -1.3483    0.3658    1.5680 C.3     1  LIG1       -0.0424
     15 C          -0.9420   -1.0754    1.3070 C.3     1  LIG1       -0.0864
     16 C           1.2348   -0.3659    0.3180 C.3     1  LIG1       -0.0477
     17 C           0.9743   -2.6442    1.4258 C.3     1  LIG1       -0.1026
     18 N           0.5627   -1.1933    1.4146 N.4     1  LIG1        0.3849
     19 O           5.3348    2.7622   -3.4456 O.3     1  LIG1       -0.3582
     20 O           2.8438    3.4434   -2.6917 O.3     1  LIG1       -0.3576
     21 H          -0.7706    4.6222   -0.2157 H       1  LIG1        0.0623
     22 H           1.4072    4.1235   -1.1192 H       1  LIG1        0.0629
     23 H          -2.0538    2.9223    1.0214 H       1  LIG1        0.0625
     24 H           5.2297   -0.6795   -0.5277 H       1  LIG1        0.0627
     25 H           6.3475    0.6606   -2.2622 H       1  LIG1        0.0651
     26 H           3.1787   -1.3167    0.5321 H       1  LIG1        0.0303
     27 H           2.9825    0.1298    1.5363 H       1  LIG1        0.0303
     28 H          -1.1885    0.6058    2.6270 H       1  LIG1        0.0297
     29 H          -2.4217    0.4651    1.3675 H       1  LIG1        0.0297
     30 H          -1.3893   -1.7366    2.0568 H       1  LIG1        0.0062
     31 H          -1.2288   -1.4142    0.3046 H       1  LIG1        0.0062
     32 H           1.0187   -0.8874   -0.6254 H       1  LIG1        0.0148
     33 H           0.6886   -3.0798    0.4666 H       1  LIG1        0.0023
     34 H           2.0560   -2.6836    1.5683 H       1  LIG1        0.0023
     35 H           0.4519   -3.1333    2.2501 H       1  LIG1        0.0023
     36 H           0.8385   -0.7977    2.3242 H       1  LIG1       -0.0816
     37 H           6.2039    2.3771   -3.6368 H       1  LIG1        0.2183
     38 H           3.4642    3.8175   -3.3346 H       1  LIG1        0.2184
@<TRIPOS>BOND
     1     1     2   ar
     2     1     3   ar
     3     2     6   ar
     4     3     9   ar
     5     4     5   ar
     6     4     8   ar
     7     5    11   ar
     8     6     7    1
     9     6    10   ar
    10     7     8   ar
    11     7    12   ar
    12     8    13    1
    13     9    10   ar
    14     9    14    1
    15    10    16    1
    16    11    12   ar
    17    11    19    1
    18    12    20    1
    19    13    16    1
    20    14    15    1
    21    15    18    1
    22    16    18    1
    23    17    18    1
    24     1    21    1
    25     2    22    1
    26     3    23    1
    27     4    24    1
    28     5    25    1
    29    13    26    1
    30    13    27    1
    31    14    28    1
    32    14    29    1
    33    15    30    1
    34    15    31    1
    35    16    32    1
    36    17    33    1
    37    17    34    1
    38    17    35    1
    39    18    36    1
    40    19    37    1
    41    20    38    1
