@<TRIPOS>MOLECULE
DB02656
 40 43 0 0 0
SMALL
USER_CHARGES

@<TRIPOS>ATOM
      1 C           6.5489   -3.3056    2.1300 C.ar    1  LIG1       -0.0622
      2 C           6.3032   -3.2270    0.7708 C.ar    1  LIG1       -0.0616
      3 C           5.9332   -2.4255    3.0015 C.ar    1  LIG1       -0.0616
      4 C           1.7611    0.7756    0.7102 C.ar    1  LIG1       -0.0607
      5 C           5.4414   -2.2687    0.2771 C.ar    1  LIG1       -0.0543
      6 C           5.0740   -1.4595    2.5184 C.ar    1  LIG1       -0.0543
      7 C           2.6327   -0.1848    1.1946 C.ar    1  LIG1       -0.0517
      8 C           2.1294    1.5845   -0.3443 C.ar    1  LIG1       -0.0483
      9 C           4.8183   -1.3793    1.1506 C.ar    1  LIG1       -0.0157
     10 C           3.8911   -0.3474    0.6259 C.ar    1  LIG1        0.0133
     11 C           3.3871    1.4349   -0.9267 C.ar    1  LIG1        0.0535
     12 C           4.2780    0.4666   -0.4453 C.ar    1  LIG1        0.1026
     13 C           5.1036    2.0651   -2.5812 C.ar    1  LIG1        0.0319
     14 C           3.8147    2.2838   -2.0582 C.ar    1  LIG1        0.1920
     15 C           5.8913    1.0923   -2.0426 C.ar    1  LIG1        0.1443
     16 C           7.7575   -0.4475   -2.5842 C.3     1  LIG1        0.0369
     17 C           7.9188    2.0026   -3.1415 C.3     1  LIG1        0.0369
     18 C           9.1974   -0.3171   -2.0758 C.3     1  LIG1        0.0625
     19 C           9.3450    1.9256   -2.5859 C.3     1  LIG1        0.0625
     20 N           7.1418    0.8906   -2.5674 N.pl3   1  LIG1       -0.3069
     21 O           3.0809    3.1437   -2.5188 O.2     1  LIG1       -0.2889
     22 O           5.4925    0.3290   -1.0161 O.2     1  LIG1       -0.2941
     23 O           9.8991    0.6410   -2.8669 O.3     1  LIG1       -0.3781
     24 H           7.2237   -4.0573    2.5119 H       1  LIG1        0.0622
     25 H           6.7864   -3.9170    0.0950 H       1  LIG1        0.0623
     26 H           6.1286   -2.4915    4.0616 H       1  LIG1        0.0623
     27 H           0.7867    0.8922    1.1611 H       1  LIG1        0.0623
     28 H           5.2501   -2.2084   -0.7840 H       1  LIG1        0.0629
     29 H           4.5938   -0.7728    3.1997 H       1  LIG1        0.0629
     30 H           2.3332   -0.8121    2.0211 H       1  LIG1        0.0630
     31 H           1.4453    2.3322   -0.7177 H       1  LIG1        0.0631
     32 H           5.4630    2.6594   -3.4083 H       1  LIG1        0.0706
     33 H           7.1969   -1.1185   -1.9335 H       1  LIG1        0.0493
     34 H           7.7605   -0.8382   -3.6017 H       1  LIG1        0.0493
     35 H           7.9416    1.9131   -4.2276 H       1  LIG1        0.0493
     36 H           7.4649    2.9527   -2.8596 H       1  LIG1        0.0493
     37 H           9.1870    0.0086   -1.0356 H       1  LIG1        0.0583
     38 H           9.6967   -1.2832   -2.1482 H       1  LIG1        0.0583
     39 H           9.3235    2.0839   -1.5077 H       1  LIG1        0.0583
     40 H           9.9586    2.6957   -3.0534 H       1  LIG1        0.0583
@<TRIPOS>BOND
     1     1     2   ar
     2     1     3   ar
     3     2     5   ar
     4     3     6   ar
     5     4     7   ar
     6     4     8   ar
     7     5     9   ar
     8     6     9   ar
     9     7    10   ar
    10     8    11   ar
    11     9    10    1
    12    10    12   ar
    13    11    12   ar
    14    11    14   ar
    15    12    22   ar
    16    13    14   ar
    17    13    15   ar
    18    14    21    2
    19    15    20    1
    20    15    22   ar
    21    16    18    1
    22    16    20    1
    23    17    19    1
    24    17    20    1
    25    18    23    1
    26    19    23    1
    27     1    24    1
    28     2    25    1
    29     3    26    1
    30     4    27    1
    31     5    28    1
    32     6    29    1
    33     7    30    1
    34     8    31    1
    35    13    32    1
    36    16    33    1
    37    16    34    1
    38    17    35    1
    39    17    36    1
    40    18    37    1
    41    18    38    1
    42    19    39    1
    43    19    40    1
