@<TRIPOS>MOLECULE
DB04163
 31 33 0 0 0
SMALL
USER_CHARGES

@<TRIPOS>ATOM
      1 C           5.3105   -3.4542    2.8749 C.ar    1  LIG1       -0.0622
      2 C           5.0078   -3.7383    1.5557 C.ar    1  LIG1       -0.0611
      3 C           5.8512   -2.2275    3.2151 C.ar    1  LIG1       -0.0611
      4 C           2.2789    0.6832    0.4508 C.ar    1  LIG1       -0.0589
      5 C           1.9958    1.6378   -0.4830 C.ar    1  LIG1       -0.0355
      6 C           5.2450   -2.7976    0.5731 C.ar    1  LIG1       -0.0482
      7 C           6.0964   -1.2841    2.2369 C.ar    1  LIG1       -0.0482
      8 C           3.5244    0.0716    0.4974 C.ar    1  LIG1       -0.0473
      9 C           4.2479    1.4049   -1.3716 C.ar    1  LIG1        0.0542
     10 C           2.9741    2.0217   -1.4087 C.ar    1  LIG1        0.0787
     11 C           5.7885   -1.5641    0.9111 C.ar    1  LIG1        0.0122
     12 C           4.5154    0.4202   -0.4038 C.ar    1  LIG1        0.0251
     13 C           5.2165    1.8055   -2.3204 C.ar    1  LIG1        0.1292
     14 C           3.6779    3.2954   -3.2023 C.ar    1  LIG1        0.2133
     15 N           2.7376    2.9589   -2.3400 N.ar    1  LIG1       -0.2151
     16 N           4.8866    2.7404   -3.2009 N.ar    1  LIG1       -0.1998
     17 N           6.4734    1.2383   -2.3296 N.pl3   1  LIG1       -0.3425
     18 N           3.3951    4.2655   -4.1466 N.pl3   1  LIG1       -0.3273
     19 S           6.0935   -0.3609   -0.3394 S.3     1  LIG1       -0.0892
     20 H           5.1239   -4.1919    3.6413 H       1  LIG1        0.0622
     21 H           4.5849   -4.6970    1.2937 H       1  LIG1        0.0623
     22 H           6.0862   -2.0089    4.2462 H       1  LIG1        0.0623
     23 H           1.5196    0.3958    1.1630 H       1  LIG1        0.0624
     24 H           1.0209    2.1019   -0.5030 H       1  LIG1        0.0645
     25 H           5.0080   -3.0200   -0.4568 H       1  LIG1        0.0634
     26 H           6.5187   -0.3264    2.5033 H       1  LIG1        0.0634
     27 H           3.7218   -0.6836    1.2437 H       1  LIG1        0.0635
     28 H           6.8788    0.9713   -3.1693 H       1  LIG1        0.1442
     29 H           6.9521    1.1064   -1.4962 H       1  LIG1        0.1442
     30 H           4.0719    4.5279   -4.7900 H       1  LIG1        0.1457
     31 H           2.5199    4.6833   -4.1655 H       1  LIG1        0.1457
@<TRIPOS>BOND
     1     1     2   ar
     2     1     3   ar
     3     2     6   ar
     4     3     7   ar
     5     4     5   ar
     6     4     8   ar
     7     5    10   ar
     8     6    11   ar
     9     7    11   ar
    10     8    12   ar
    11     9    10   ar
    12     9    12   ar
    13     9    13   ar
    14    10    15   ar
    15    11    19    1
    16    12    19    1
    17    13    16   ar
    18    13    17    1
    19    14    15   ar
    20    14    16   ar
    21    14    18    1
    22     1    20    1
    23     2    21    1
    24     3    22    1
    25     4    23    1
    26     5    24    1
    27     6    25    1
    28     7    26    1
    29     8    27    1
    30    17    28    1
    31    17    29    1
    32    18    30    1
    33    18    31    1
