@<TRIPOS>MOLECULE
DB04608
 37 41 0 0 0
SMALL
USER_CHARGES

@<TRIPOS>ATOM
      1 C          -1.2160    3.6006   -0.4656 C.ar    1  LIG1       -0.0622
      2 C           0.0470    4.1548   -0.3563 C.ar    1  LIG1       -0.0616
      3 C          -1.3872    2.2312   -0.3700 C.ar    1  LIG1       -0.0616
      4 C           1.1441    3.3433   -0.1517 C.ar    1  LIG1       -0.0543
      5 C          -0.2970    1.4089   -0.1713 C.ar    1  LIG1       -0.0543
      6 C           5.3913   -3.2728    2.7733 C.ar    1  LIG1       -0.0376
      7 C           6.6666   -3.6152    2.3788 C.ar    1  LIG1       -0.0302
      8 C           6.6227   -1.9275    0.6685 C.ar    1  LIG1       -0.0222
      9 C           2.1246    0.1250    1.1734 C.ar    1  LIG1       -0.0314
     10 C           5.3297   -1.5781    1.0570 C.ar    1  LIG1        0.0083
     11 C           4.3676   -0.5713    0.5794 C.ar    1  LIG1        0.0184
     12 C           0.9779    1.9620   -0.0551 C.ar    1  LIG1       -0.0175
     13 C           2.1518    1.0853    0.1641 C.ar    1  LIG1       -0.0031
     14 C           4.4019    0.3880   -0.4336 C.ar    1  LIG1        0.0604
     15 C           3.2874    1.2220   -0.6434 C.ar    1  LIG1        0.0586
     16 C           4.7081   -2.2526    2.1191 C.ar    1  LIG1        0.0385
     17 C           3.2187   -0.7024    1.3881 C.ar    1  LIG1        0.0398
     18 C           7.2839   -2.9475    1.3264 C.ar    1  LIG1        0.0721
     19 C           5.4037    0.7919   -1.4387 C.ar    1  LIG1        0.2512
     20 C           3.6474    2.1043   -1.7672 C.ar    1  LIG1        0.2511
     21 N           3.4452   -1.7133    2.3011 N.ar    1  LIG1       -0.3138
     22 N           4.8910    1.7941   -2.1753 N.ar    1  LIG1       -0.2475
     23 O           6.5065    0.3015   -1.5780 O.2     1  LIG1       -0.2713
     24 O           2.9390    2.9679   -2.2457 O.2     1  LIG1       -0.2713
     25 O           8.5429   -3.2952    0.9476 O.3     1  LIG1       -0.3609
     26 H          -2.0716    4.2398   -0.6256 H       1  LIG1        0.0622
     27 H           0.1744    5.2246   -0.4310 H       1  LIG1        0.0623
     28 H          -2.3756    1.8044   -0.4557 H       1  LIG1        0.0623
     29 H           2.1295    3.7771   -0.0662 H       1  LIG1        0.0629
     30 H          -0.4319    0.3399   -0.0972 H       1  LIG1        0.0629
     31 H           4.9212   -3.7978    3.5918 H       1  LIG1        0.0643
     32 H           7.1908   -4.4086    2.8908 H       1  LIG1        0.0651
     33 H           7.1020   -1.4091   -0.1487 H       1  LIG1        0.0657
     34 H           1.2459    0.0232    1.7930 H       1  LIG1        0.0649
     35 H           2.8102   -2.0044    2.9740 H       1  LIG1        0.1528
     36 H           5.3563    2.2347   -2.9034 H       1  LIG1        0.1592
     37 H           9.1512   -2.7536    1.4688 H       1  LIG1        0.2182
@<TRIPOS>BOND
     1     1     2   ar
     2     1     3   ar
     3     2     4   ar
     4     3     5   ar
     5     4    12   ar
     6     5    12   ar
     7     6     7   ar
     8     6    16   ar
     9     7    18   ar
    10     8    10   ar
    11     8    18   ar
    12     9    13   ar
    13     9    17   ar
    14    10    11   ar
    15    10    16   ar
    16    11    14   ar
    17    11    17   ar
    18    12    13    1
    19    13    15   ar
    20    14    15   ar
    21    14    19   ar
    22    15    20   ar
    23    16    21   ar
    24    17    21   ar
    25    18    25    1
    26    19    22   ar
    27    19    23    2
    28    20    22   ar
    29    20    24    2
    30     1    26    1
    31     2    27    1
    32     3    28    1
    33     4    29    1
    34     5    30    1
    35     6    31    1
    36     7    32    1
    37     8    33    1
    38     9    34    1
    39    21    35    1
    40    22    36    1
    41    25    37    1
