@<TRIPOS>MOLECULE
DB07335
 35 37 0 0 0
SMALL
USER_CHARGES

@<TRIPOS>ATOM
      1 C          -1.1741    1.7099   -0.1576 C.ar    1  LIG1       -0.0590
      2 C           0.0540    1.0495   -0.1927 C.ar    1  LIG1       -0.0525
      3 C          -1.2200    3.0857    0.0679 C.ar    1  LIG1       -0.0320
      4 C           1.1903    3.1407    0.2236 C.ar    1  LIG1       -0.0226
      5 C           5.9529    1.1000   -2.0877 C.ar    1  LIG1        0.1195
      6 C           3.5797    1.3185   -0.9167 C.ar    1  LIG1        0.0844
      7 C           1.2362    1.7650   -0.0020 C.ar    1  LIG1        0.0052
      8 C          -0.0379    3.8011    0.2585 C.ar    1  LIG1        0.0720
      9 C           2.5051    1.0825   -0.0391 C.ar    1  LIG1        0.1031
     10 C           4.5415    0.4011   -0.5316 C.ar    1  LIG1        0.1547
     11 C           3.8974    2.1601   -1.9775 C.ar    1  LIG1        0.1297
     12 C           5.8761   -0.8906    1.9954 C.3     1  LIG1       -0.0447
     13 C           4.9207   -2.5788    0.3695 C.3     1  LIG1       -0.0447
     14 C           4.6257   -1.3643    1.2519 C.3     1  LIG1        0.0417
     15 N           5.7583    0.2312   -1.0723 N.ar    1  LIG1       -0.2189
     16 N           5.1098    2.0437   -2.5704 N.ar    1  LIG1       -0.2211
     17 N           2.7566    0.0997    0.8326 N.ar    1  LIG1       -0.1784
     18 N           4.0018   -0.2954    0.5087 N.ar    1  LIG1       -0.2041
     19 N           2.9856    3.1246   -2.4432 N.pl3   1  LIG1       -0.3425
     20 O          -0.0836    5.1433    0.4802 O.3     1  LIG1       -0.3609
     21 H          -2.0949    1.1531   -0.3059 H       1  LIG1        0.0624
     22 H           0.0727   -0.0234   -0.3698 H       1  LIG1        0.0630
     23 H          -2.1797    3.5950    0.0946 H       1  LIG1        0.0650
     24 H           2.1068    3.7079    0.3723 H       1  LIG1        0.0657
     25 H           6.9141    1.0320   -2.5863 H       1  LIG1        0.1063
     26 H           6.6574   -0.5519    1.3067 H       1  LIG1        0.0250
     27 H           6.2944   -1.7022    2.6002 H       1  LIG1        0.0250
     28 H           5.6390   -0.0576    2.6667 H       1  LIG1        0.0250
     29 H           5.6442   -2.3258   -0.4135 H       1  LIG1        0.0250
     30 H           4.0056   -2.9310   -0.1182 H       1  LIG1        0.0250
     31 H           5.3326   -3.4132    0.9470 H       1  LIG1        0.0250
     32 H           3.8992   -1.6836    2.0102 H       1  LIG1        0.0521
     33 H           2.0726    3.1760   -2.0343 H       1  LIG1        0.1442
     34 H           3.2256    3.6838   -3.2391 H       1  LIG1        0.1442
     35 H           0.8132    5.4963    0.5931 H       1  LIG1        0.2182
@<TRIPOS>BOND
     1     1     2   ar
     2     1     3   ar
     3     2     7   ar
     4     3     8   ar
     5     4     7   ar
     6     4     8   ar
     7     5    15   ar
     8     5    16   ar
     9     6     9   ar
    10     6    10   ar
    11     6    11   ar
    12     7     9    1
    13     8    20    1
    14     9    17   ar
    15    10    15   ar
    16    10    18   ar
    17    11    16   ar
    18    11    19    1
    19    12    14    1
    20    13    14    1
    21    14    18    1
    22    17    18   ar
    23     1    21    1
    24     2    22    1
    25     3    23    1
    26     4    24    1
    27     5    25    1
    28    12    26    1
    29    12    27    1
    30    12    28    1
    31    13    29    1
    32    13    30    1
    33    13    31    1
    34    14    32    1
    35    19    33    1
    36    19    34    1
    37    20    35    1
