@<TRIPOS>MOLECULE
DB07241
 39 44 0 0 0
SMALL
USER_CHARGES

@<TRIPOS>ATOM
      1 C           6.8849   -2.9740    1.5899 C.ar    1  LIG1        0.0000
      2 C          -0.9046    3.4976   -0.5412 C.ar    1  LIG1        0.0000
      3 C           6.0937   -3.5035    2.6038 C.ar    1  LIG1        0.0000
      4 C          -1.6124    2.8978    0.4952 C.ar    1  LIG1        0.0000
      5 C           6.4167   -1.9311    0.7842 C.ar    1  LIG1        0.0000
      6 C           0.3892    3.0764   -0.8648 C.ar    1  LIG1        0.0000
      7 C           4.8090   -3.0122    2.8488 C.ar    1  LIG1        0.0000
      8 C          -1.0550    1.8585    1.2440 C.ar    1  LIG1        0.0000
      9 C           5.1255   -1.4022    0.9948 C.ar    1  LIG1        0.0000
     10 C           0.9934    2.0300   -0.1362 C.ar    1  LIG1        0.0000
     11 C           4.3715   -0.3832    0.3816 C.ar    1  LIG1        0.0000
     12 C           2.2431    1.3843   -0.2012 C.ar    1  LIG1        0.0000
     13 C           4.4674    0.5496   -0.6421 C.ar    1  LIG1        0.0000
     14 C           3.4260    1.4143   -0.9275 C.ar    1  LIG1        0.0000
     15 C           4.3238   -1.9662    2.0500 C.ar    1  LIG1        0.0000
     16 C           0.2420    1.4239    0.9327 C.ar    1  LIG1        0.0000
     17 C           3.1808   -0.4247    1.1233 C.ar    1  LIG1        0.0000
     18 C           2.1327    0.4455    0.8363 C.ar    1  LIG1        0.0000
     19 CA          5.5014    0.7905   -1.4996 C.ar    1  LIG1        0.0000
     20 C           3.7807    2.2189   -1.9710 C.ar    1  LIG1        0.0000
     21 C           6.8746    0.1541   -1.6463 C.2     1  LIG1        0.0000
     22 N           3.0769   -1.3342    2.1267 N.ar    1  LIG1        0.0000
     23 N           0.9793    0.4080    1.5526 N.ar    1  LIG1        0.0000
     24 N           5.0665    1.8249   -2.3179 N.ar    1  LIG1        0.0000
     25 O           7.8166    0.6679   -0.9760 O.co2   1  LIG1       -0.5000
     26 OXT         6.9640   -0.8375   -2.4269 O.co2   1  LIG1       -0.5000
     27 O           3.1838    3.1958   -2.6336 O.3     1  LIG1        0.0000
     28 H           7.8810   -3.3749    1.4210 H       1  LIG1        0.0000
     29 H          -1.3616    4.3043   -1.1084 H       1  LIG1        0.0000
     30 H           6.4804   -4.3136    3.2173 H       1  LIG1        0.0000
     31 H          -2.6169    3.2425    0.7274 H       1  LIG1        0.0000
     32 H           7.0757   -1.5598    0.0118 H       1  LIG1        0.0000
     33 H           0.9084    3.5692   -1.6796 H       1  LIG1        0.0000
     34 H           4.2018   -3.4353    3.6435 H       1  LIG1        0.0000
     35 H          -1.6188    1.3992    2.0503 H       1  LIG1        0.0000
     36 H           2.3075   -1.5091    2.7596 H       1  LIG1        0.0000
     37 H           0.7207   -0.1917    2.3252 H       1  LIG1        0.0000
     38 H           5.6090    2.2366   -3.0641 H       1  LIG1        0.0000
     39 H           3.7507    3.5640   -3.3493 H       1  LIG1        0.0000
@<TRIPOS>BOND
     1     1     3   ar
     2     1     5   ar
     3     2     4   ar
     4     2     6   ar
     5     3     7   ar
     6     4     8   ar
     7     5     9   ar
     8     6    10   ar
     9     7    15   ar
    10     8    16   ar
    11     9    11   ar
    12     9    15   ar
    13    10    12   ar
    14    10    16   ar
    15    11    13   ar
    16    11    17   ar
    17    12    14   ar
    18    12    18   ar
    19    13    14   ar
    20    13    19   ar
    21    14    20   ar
    22    15    22   ar
    23    16    23   ar
    24    17    18   ar
    25    17    22   ar
    26    18    23   ar
    27    19    21    1
    28    19    24   ar
    29    20    24   ar
    30    20    27    1
    31    21    25   ar
    32    21    26   ar
    33     1    28    1
    34     2    29    1
    35     3    30    1
    36     4    31    1
    37     5    32    1
    38     6    33    1
    39     7    34    1
    40     8    35    1
    41    22    36    1
    42    23    37    1
    43    24    38    1
    44    27    39    1
