@<TRIPOS>MOLECULE
DB07047
 25 26 0 0 0
SMALL
USER_CHARGES

@<TRIPOS>ATOM
      1 C           3.4172    1.5367   -1.0217 C.ar    1  LIG1        0.0000
      2 C          -0.0448    1.1312   -0.0477 C.ar    1  LIG1        0.0000
      3 C           4.6328    0.8884   -1.0645 C.ar    1  LIG1        0.0000
      4 C          -1.2566    1.7899   -0.0103 C.ar    1  LIG1        0.0000
      5 C           2.7037    0.1180    0.7951 C.ar    1  LIG1        0.0000
      6 C          -0.1192    3.9035    0.0209 C.ar    1  LIG1        0.0000
      7 C           2.4483    1.1570   -0.0906 C.ar    1  LIG1        0.0000
      8 C           1.1426    1.8606   -0.0509 C.ar    1  LIG1        0.0000
      9 C           3.9365   -0.5370    0.7586 C.ar    1  LIG1        0.0000
     10 C           4.9036   -0.1473   -0.1815 C.ar    1  LIG1        0.0000
     11 C          -1.2950    3.1735    0.0240 C.ar    1  LIG1        0.0000
     12 C           1.0995    3.2537   -0.0111 C.ar    1  LIG1        0.0000
     13 C           4.2185   -1.6349    1.6976 C.2     1  LIG1        0.0000
     14 O           5.2976   -2.2100    1.6600 O.co2   1  LIG1       -0.5000
     15 O           3.3719   -1.9755    2.5125 O.co2   1  LIG1       -0.5000
     16 O           6.1010   -0.7819   -0.2264 O.3     1  LIG1        0.0000
     17 CL         -2.8233    3.9957    0.0703 Cl      1  LIG1        0.0000
     18 CL          2.5739    4.1700   -0.0149 Cl      1  LIG1        0.0000
     19 H           3.2132    2.3424   -1.7114 H       1  LIG1        0.0000
     20 H          -0.0165    0.0518   -0.0748 H       1  LIG1        0.0000
     21 H           5.3771    1.1875   -1.7875 H       1  LIG1        0.0000
     22 H          -2.1771    1.2250   -0.0081 H       1  LIG1        0.0000
     23 H           1.9548   -0.1764    1.5156 H       1  LIG1        0.0000
     24 H          -0.1543    4.9826    0.0474 H       1  LIG1        0.0000
     25 H           6.0029   -1.5207   -0.8425 H       1  LIG1        0.0000
@<TRIPOS>BOND
     1     1     3   ar
     2     1     7   ar
     3     2     4   ar
     4     2     8   ar
     5     3    10   ar
     6     4    11   ar
     7     5     7   ar
     8     5     9   ar
     9     6    11   ar
    10     6    12   ar
    11     7     8    1
    12     8    12   ar
    13     9    10   ar
    14     9    13    1
    15    10    16    1
    16    11    17    1
    17    12    18    1
    18    13    14   ar
    19    13    15   ar
    20     1    19    1
    21     2    20    1
    22     3    21    1
    23     4    22    1
    24     5    23    1
    25     6    24    1
    26    16    25    1
