@<TRIPOS>MOLECULE
DB07728
 37 40 0 0 0
SMALL
USER_CHARGES

@<TRIPOS>ATOM
      1 C           6.0332   -3.5044    1.0097 C.ar    1  LIG1       -0.0614
      2 C           6.1906   -3.3544    2.3874 C.ar    1  LIG1       -0.0593
      3 C           5.4958   -2.4640    0.2517 C.ar    1  LIG1       -0.0499
      4 C           5.8106   -2.1639    3.0072 C.ar    1  LIG1       -0.0256
      5 C           3.6200    1.8326   -1.4764 C.ar    1  LIG1       -0.0346
      6 C           3.2853    0.2827    0.3320 C.ar    1  LIG1       -0.0265
      7 C           1.0105    3.1332   -0.4655 C.ar    1  LIG1       -0.0261
      8 C           4.8798    1.2809   -1.6446 C.ar    1  LIG1        0.0282
      9 C           5.1158   -1.2736    0.8715 C.ar    1  LIG1        0.0359
     10 C           2.8138    1.3183   -0.4670 C.ar    1  LIG1       -0.0005
     11 C          -0.3550    3.1339   -0.0918 C.ar    1  LIG1        0.0560
     12 C           5.2731   -1.1235    2.2493 C.ar    1  LIG1        0.1321
     13 C           4.5601   -0.1999    0.0826 C.ar    1  LIG1        0.0738
     14 C           1.4929    1.8579   -0.2495 C.ar    1  LIG1        0.0383
     15 C          -0.6524    1.8623    0.3504 C.ar    1  LIG1        0.0213
     16 C          -1.3543    4.1854   -0.0909 C.2     1  LIG1        0.2446
     17 C          -1.9698    1.4269    0.8704 C.3     1  LIG1        0.0018
     18 C          -3.0408    2.3341    0.2529 C.3     1  LIG1        0.0166
     19 N           5.3723    0.2743   -0.8885 N.ar    1  LIG1       -0.2560
     20 N           0.4688    1.0902    0.2492 N.ar    1  LIG1       -0.3171
     21 N          -2.6444    3.7458    0.2066 N.am    1  LIG1       -0.3109
     22 O          -1.0734    5.3591   -0.3150 O.2     1  LIG1       -0.2718
     23 F           4.9114    0.0138    2.8608 F       1  LIG1       -0.2062
     24 H           6.3294   -4.4313    0.5272 H       1  LIG1        0.0623
     25 H           6.6089   -4.1644    2.9776 H       1  LIG1        0.0623
     26 H           5.3793   -2.5965   -0.8214 H       1  LIG1        0.0631
     27 H           5.9331   -2.0471    4.0800 H       1  LIG1        0.0653
     28 H           3.2865    2.6399   -2.1204 H       1  LIG1        0.0646
     29 H           2.6735   -0.1354    1.1268 H       1  LIG1        0.0652
     30 H           1.5800    3.9686   -0.8505 H       1  LIG1        0.0651
     31 H           5.5475    1.6464   -2.4180 H       1  LIG1        0.0840
     32 H          -2.1774    0.3780    0.6356 H       1  LIG1        0.0345
     33 H          -1.9750    1.5379    1.9611 H       1  LIG1        0.0345
     34 H          -3.2358    2.0365   -0.7843 H       1  LIG1        0.0471
     35 H          -3.9807    2.2626    0.8088 H       1  LIG1        0.0471
     36 H           0.5361    0.1146    0.5073 H       1  LIG1        0.1525
     37 H          -3.3529    4.4462    0.4031 H       1  LIG1        0.1497
@<TRIPOS>BOND
     1     1     2   ar
     2     1     3   ar
     3     2     4   ar
     4     3     9   ar
     5     4    12   ar
     6     5     8   ar
     7     5    10   ar
     8     6    10   ar
     9     6    13   ar
    10     7    11   ar
    11     7    14   ar
    12     8    19   ar
    13     9    12   ar
    14     9    13    1
    15    10    14    1
    16    11    15   ar
    17    11    16    1
    18    12    23    1
    19    13    19   ar
    20    14    20   ar
    21    15    17    1
    22    15    20   ar
    23    16    21   am
    24    16    22    2
    25    17    18    1
    26    18    21    1
    27     1    24    1
    28     2    25    1
    29     3    26    1
    30     4    27    1
    31     5    28    1
    32     6    29    1
    33     7    30    1
    34     8    31    1
    35    17    32    1
    36    17    33    1
    37    18    34    1
    38    18    35    1
    39    20    36    1
    40    21    37    1
