@<TRIPOS>MOLECULE
DB07972
 30 32 0 0 0
SMALL
USER_CHARGES

@<TRIPOS>ATOM
      1 C           5.9253   -3.4224    1.2285 C.ar    1  LIG1       -0.0601
      2 C           5.9796   -3.4262    2.6104 C.ar    1  LIG1       -0.0592
      3 C           5.6038    0.4008   -1.1315 C.ar    1  LIG1       -0.0361
      4 C           5.2405   -2.4230    0.5658 C.ar    1  LIG1       -0.0402
      5 C           5.7757    1.3019   -2.1599 C.ar    1  LIG1       -0.0393
      6 C           4.6733   -1.4205    2.6752 C.ar    1  LIG1       -0.0373
      7 C           3.5524    2.1620   -1.8170 C.ar    1  LIG1       -0.0135
      8 C           2.6589    0.0297    0.8805 C.ar    1  LIG1        0.0922
      9 C           5.3546   -2.4265    3.3325 C.ar    1  LIG1       -0.0492
     10 C           3.3675    1.2517   -0.7736 C.ar    1  LIG1        0.0883
     11 C           4.4049    0.3670   -0.4338 C.ar    1  LIG1        0.0646
     12 C           4.6165   -1.4142    1.2880 C.ar    1  LIG1        0.0391
     13 C           4.7522    2.1828   -2.5035 C.ar    1  LIG1        0.0256
     14 C           5.4171   -2.4338    4.8382 C.3     1  LIG1       -0.0397
     15 N           2.3329    0.9918    0.0674 N.ar    1  LIG1       -0.2388
     16 N           3.9263   -0.3953    0.6183 N.ar    1  LIG1       -0.2581
     17 N           4.9378    3.0896   -3.5527 N.pl3   1  LIG1       -0.3582
     18 H           6.4152   -4.2044    0.6673 H       1  LIG1        0.0623
     19 H           6.5117   -4.2116    3.1267 H       1  LIG1        0.0625
     20 H           6.4008   -0.2794   -0.8698 H       1  LIG1        0.0644
     21 H           5.1983   -2.4205   -0.5134 H       1  LIG1        0.0642
     22 H           6.7096    1.3262   -2.7019 H       1  LIG1        0.0643
     23 H           4.1855   -0.6397    3.2396 H       1  LIG1        0.0645
     24 H           2.7616    2.8466   -2.0860 H       1  LIG1        0.0666
     25 H           2.0180   -0.3732    1.6508 H       1  LIG1        0.1020
     26 H           4.5719   -2.9967    5.2342 H       1  LIG1        0.0280
     27 H           6.3478   -2.9005    5.1609 H       1  LIG1        0.0280
     28 H           5.3769   -1.4094    5.2085 H       1  LIG1        0.0280
     29 H           5.7772    3.1038   -4.0387 H       1  LIG1        0.1426
     30 H           4.2272    3.7040   -3.7941 H       1  LIG1        0.1426
@<TRIPOS>BOND
     1     1     2   ar
     2     1     4   ar
     3     2     9   ar
     4     3     5   ar
     5     3    11   ar
     6     4    12   ar
     7     5    13   ar
     8     6     9   ar
     9     6    12   ar
    10     7    10   ar
    11     7    13   ar
    12     8    15   ar
    13     8    16   ar
    14     9    14    1
    15    10    11   ar
    16    10    15   ar
    17    11    16   ar
    18    12    16    1
    19    13    17    1
    20     1    18    1
    21     2    19    1
    22     3    20    1
    23     4    21    1
    24     5    22    1
    25     6    23    1
    26     7    24    1
    27     8    25    1
    28    14    26    1
    29    14    27    1
    30    14    28    1
    31    17    29    1
    32    17    30    1
