@<TRIPOS>MOLECULE
DB07837
 46 50 0 0 0
SMALL
USER_CHARGES

@<TRIPOS>ATOM
      1 C          -3.2280    4.4550    0.7764 C.ar    1  LIG1        0.0000
      2 C          -2.3967    5.4240    0.2227 C.ar    1  LIG1        0.0000
      3 C          -2.7711    3.1453    0.9258 C.ar    1  LIG1        0.0000
      4 C          -1.1053    5.0872   -0.1837 C.ar    1  LIG1        0.0000
      5 C          -0.9975    1.4751    0.6654 C.ar    1  LIG1        0.0000
      6 C           0.2939    1.1382    0.2590 C.ar    1  LIG1        0.0000
      7 C           5.6693   -2.8231    0.5214 C.ar    1  LIG1        0.0000
      8 C           5.3401   -1.1125    2.1956 C.ar    1  LIG1        0.0000
      9 C           5.6861   -3.7970    1.5198 C.ar    1  LIG1        0.0000
     10 C           5.3569   -2.0865    3.1940 C.ar    1  LIG1        0.0000
     11 C           0.6683    3.4171   -0.4443 C.ar    1  LIG1        0.0000
     12 C           3.1642    0.7376   -0.0708 C.ar    1  LIG1        0.0000
     13 C           3.0759    2.4243   -1.7675 C.ar    1  LIG1        0.0000
     14 C           6.5463   -0.2692   -1.0134 C.ar    1  LIG1        0.0000
     15 C          -1.4741    2.7884    0.5224 C.ar    1  LIG1        0.0000
     16 C          -0.6286    3.7739   -0.0408 C.ar    1  LIG1        0.0000
     17 C           4.4597    0.4426   -0.5258 C.ar    1  LIG1        0.0000
     18 C           5.4963   -1.4808    0.8594 C.ar    1  LIG1        0.0000
     19 C           1.1252    2.1074   -0.2948 C.ar    1  LIG1        0.0000
     20 C           2.4643    1.7559   -0.7154 C.ar    1  LIG1        0.0000
     21 C           5.4785   -0.4796   -0.1679 C.ar    1  LIG1        0.0000
     22 C           5.5299   -3.4287    2.8561 C.ar    1  LIG1        0.0000
     23 C           4.9505    1.1921   -1.5910 C.ar    1  LIG1        0.0000
     24 C           6.9783   -4.6793    4.4152 C.2     1  LIG1        0.0000
     25 C           5.5466   -4.4710    3.9226 C.3     1  LIG1        0.0000
     26 N           4.3182    2.1834   -2.2472 N.ar    1  LIG1        0.0000
     27 N           6.2154    0.7470   -1.8719 N.ar    1  LIG1        0.0000
     28 O           7.5163   -3.6674    4.9473 O.co2   1  LIG1       -0.5000
     29 O           7.4502   -5.8356    4.2229 O.co2   1  LIG1       -0.5000
     30 H          -4.2327    4.7180    1.0935 H       1  LIG1        0.0000
     31 H          -2.7532    6.4434    0.1067 H       1  LIG1        0.0000
     32 H          -3.4385    2.4041    1.3604 H       1  LIG1        0.0000
     33 H          -0.4731    5.8612   -0.6137 H       1  LIG1        0.0000
     34 H          -1.6304    0.7018    1.0954 H       1  LIG1        0.0000
     35 H           0.6364    0.1134    0.3820 H       1  LIG1        0.0000
     36 H           5.7931   -3.1267   -0.5154 H       1  LIG1        0.0000
     37 H           5.2043   -0.0703    2.4751 H       1  LIG1        0.0000
     38 H           5.8205   -4.8406    1.2479 H       1  LIG1        0.0000
     39 H           5.2345   -1.7913    4.2328 H       1  LIG1        0.0000
     40 H           1.3243    4.1706   -0.8786 H       1  LIG1        0.0000
     41 H           2.7283    0.1868    0.7577 H       1  LIG1        0.0000
     42 H           2.5549    3.2230   -2.2917 H       1  LIG1        0.0000
     43 H           7.5143   -0.7468   -1.0845 H       1  LIG1        0.0000
     44 H           4.9010   -4.1835    4.7671 H       1  LIG1        0.0000
     45 H           5.1392   -5.4239    3.5506 H       1  LIG1        0.0000
     46 H           6.8128    1.1142   -2.5995 H       1  LIG1        0.0000
@<TRIPOS>BOND
     1     1     2   ar
     2     1     3   ar
     3     2     4   ar
     4     3    15   ar
     5     4    16   ar
     6     5     6   ar
     7     5    15   ar
     8     6    19   ar
     9     7     9   ar
    10     7    18   ar
    11     8    10   ar
    12     8    18   ar
    13     9    22   ar
    14    10    22   ar
    15    11    16   ar
    16    11    19   ar
    17    12    17   ar
    18    12    20   ar
    19    13    20   ar
    20    13    26   ar
    21    14    21   ar
    22    14    27   ar
    23    15    16   ar
    24    17    21   ar
    25    17    23   ar
    26    18    21    1
    27    19    20    1
    28    22    25    1
    29    23    26   ar
    30    23    27   ar
    31    24    25    1
    32    24    28   ar
    33    24    29   ar
    34     1    30    1
    35     2    31    1
    36     3    32    1
    37     4    33    1
    38     5    34    1
    39     6    35    1
    40     7    36    1
    41     8    37    1
    42     9    38    1
    43    10    39    1
    44    11    40    1
    45    12    41    1
    46    13    42    1
    47    14    43    1
    48    25    44    1
    49    25    45    1
    50    27    46    1
