@<TRIPOS>MOLECULE
DB08683
 45 52 0 0 0
SMALL
USER_CHARGES

@<TRIPOS>ATOM
      1 C          -0.7980    3.6734   -0.5708 C.ar    1  LIG1       -0.0615
      2 C           6.9845   -2.8210    1.5696 C.ar    1  LIG1       -0.0615
      3 C          -1.6128    3.0798    0.3773 C.ar    1  LIG1       -0.0603
      4 C           6.2403   -3.4602    2.5457 C.ar    1  LIG1       -0.0603
      5 C           0.4625    3.1799   -0.8615 C.ar    1  LIG1       -0.0524
      6 C           6.4462   -1.8180    0.7816 C.ar    1  LIG1       -0.0524
      7 C          -1.2216    1.9577    1.0883 C.ar    1  LIG1       -0.0399
      8 C           4.9150   -3.1418    2.7901 C.ar    1  LIG1       -0.0399
      9 C           0.8765    2.0506   -0.1529 C.ar    1  LIG1        0.0061
     10 C           5.1128   -1.4779    1.0169 C.ar    1  LIG1        0.0061
     11 C           2.1158    1.2783   -0.1917 C.ar    1  LIG1        0.0205
     12 C           4.2417   -0.4780    0.4051 C.ar    1  LIG1        0.0205
     13 C           3.3193    1.3570   -0.9062 C.ar    1  LIG1        0.0605
     14 C           4.3808    0.4821   -0.6072 C.ar    1  LIG1        0.0605
     15 C           0.0417    1.4369    0.8122 C.ar    1  LIG1        0.0434
     16 C           4.3462   -2.1379    2.0076 C.ar    1  LIG1        0.0434
     17 C           1.9558    0.2673    0.7675 C.ar    1  LIG1        0.0665
     18 C           3.0131   -0.5948    1.0722 C.ar    1  LIG1        0.0665
     19 C           3.8029    2.2200   -1.9990 C.ar    1  LIG1        0.2512
     20 C           5.4732    0.8423   -1.5290 C.ar    1  LIG1        0.2512
     21 C           0.5938   -0.2674    3.6980 C.3     1  LIG1       -0.0052
     22 C           1.7554   -1.2278    4.0258 C.3     1  LIG1       -0.0052
     23 C           0.1517   -0.6439    2.2696 C.3     1  LIG1        0.1302
     24 C           1.9210   -2.1039    2.7673 C.3     1  LIG1        0.1302
     25 N           0.6897    0.3410    1.3258 N.ar    1  LIG1       -0.2711
     26 N           3.0739   -1.6219    1.9997 N.ar    1  LIG1       -0.2711
     27 N           5.0621    1.8608   -2.3050 N.ar    1  LIG1       -0.2475
     28 O           3.1693    3.1081   -2.5340 O.2     1  LIG1       -0.2713
     29 O           6.5634    0.3081   -1.5793 O.2     1  LIG1       -0.2713
     30 O           0.7178   -1.9310    2.0171 O.3     1  LIG1       -0.3382
     31 H          -1.1550    4.5456   -1.0980 H       1  LIG1        0.0623
     32 H           8.0132   -3.1131    1.4182 H       1  LIG1        0.0623
     33 H          -2.5865    3.5058    0.5689 H       1  LIG1        0.0623
     34 H           6.7090   -4.2330    3.1370 H       1  LIG1        0.0623
     35 H           1.0953    3.6462   -1.6022 H       1  LIG1        0.0630
     36 H           7.0304   -1.3222    0.0204 H       1  LIG1        0.0630
     37 H          -1.8682    1.5049    1.8254 H       1  LIG1        0.0643
     38 H           4.3457   -3.6501    3.5544 H       1  LIG1        0.0643
     39 H           0.9378    0.7665    3.7274 H       1  LIG1        0.0312
     40 H          -0.2277   -0.4138    4.3993 H       1  LIG1        0.0312
     41 H           1.5032   -1.8466    4.8870 H       1  LIG1        0.0312
     42 H           2.6690   -0.6651    4.2178 H       1  LIG1        0.0312
     43 H          -0.9350   -0.6860    2.1950 H       1  LIG1        0.0824
     44 H           2.0610   -3.1481    3.0467 H       1  LIG1        0.0824
     45 H           5.6003    2.2777   -2.9959 H       1  LIG1        0.1592
@<TRIPOS>BOND
     1     1     3   ar
     2     1     5   ar
     3     2     4   ar
     4     2     6   ar
     5     3     7   ar
     6     4     8   ar
     7     5     9   ar
     8     6    10   ar
     9     7    15   ar
    10     8    16   ar
    11     9    11   ar
    12     9    15   ar
    13    10    12   ar
    14    10    16   ar
    15    11    13   ar
    16    11    17   ar
    17    12    14   ar
    18    12    18   ar
    19    13    14   ar
    20    13    19   ar
    21    14    20   ar
    22    15    25   ar
    23    16    26   ar
    24    17    18   ar
    25    17    25   ar
    26    18    26   ar
    27    19    27   ar
    28    19    28    2
    29    20    27   ar
    30    20    29    2
    31    21    22    1
    32    21    23    1
    33    22    24    1
    34    23    25    1
    35    23    30    1
    36    24    26    1
    37    24    30    1
    38     1    31    1
    39     2    32    1
    40     3    33    1
    41     4    34    1
    42     5    35    1
    43     6    36    1
    44     7    37    1
    45     8    38    1
    46    21    39    1
    47    21    40    1
    48    22    41    1
    49    22    42    1
    50    23    43    1
    51    24    44    1
    52    27    45    1
