@<TRIPOS>MOLECULE
DB08178
 29 31 0 0 0
SMALL
USER_CHARGES

@<TRIPOS>ATOM
      1 C           5.1758    1.9248   -2.5109 C.ar    1  LIG1       -0.0126
      2 C           1.1375    3.0865   -0.3645 C.ar    1  LIG1       -0.0171
      3 C           6.0297    0.9501   -2.0126 C.ar    1  LIG1        0.0317
      4 C          -0.1168    3.6581   -0.2996 C.ar    1  LIG1        0.0328
      5 C           2.7614    0.0503    0.8817 C.ar    1  LIG1        0.0045
      6 C           3.5911    1.2395   -0.8493 C.ar    1  LIG1        0.0559
      7 C           2.4671    1.0694    0.0016 C.ar    1  LIG1        0.0276
      8 C           3.9223    2.0825   -1.9223 C.ar    1  LIG1        0.0876
      9 C           1.2132    1.7665    0.0306 C.ar    1  LIG1        0.0777
     10 C           4.5428    0.3051   -0.4515 C.ar    1  LIG1        0.1318
     11 C          -1.0155    1.7194    0.4756 C.ar    1  LIG1        0.2114
     12 C           3.5148    3.8263   -3.4872 C.3     1  LIG1        0.0423
     13 N           5.7644    0.1117   -0.9838 N.ar    1  LIG1       -0.2404
     14 N          -1.2192    3.0013    0.1172 N.ar    1  LIG1       -0.2238
     15 N           0.1529    1.0499    0.4579 N.ar    1  LIG1       -0.2152
     16 N           4.0228   -0.4055    0.5981 N.ar    1  LIG1       -0.3048
     17 N          -2.1477    1.0009    0.9184 N.pl3   1  LIG1       -0.3273
     18 O           3.0616    3.0342   -2.3940 O.3     1  LIG1       -0.3485
     19 H           5.4830    2.5495   -3.3434 H       1  LIG1        0.0667
     20 H           1.9972    3.6500   -0.7054 H       1  LIG1        0.0662
     21 H           7.0108    0.8134   -2.4599 H       1  LIG1        0.0841
     22 H          -0.2750    4.6910   -0.5907 H       1  LIG1        0.0842
     23 H           2.1911   -0.3951    1.6858 H       1  LIG1        0.0797
     24 H           2.7381    4.5430   -3.7655 H       1  LIG1        0.0535
     25 H           3.7483    3.1783   -4.3357 H       1  LIG1        0.0535
     26 H           4.4150    4.3670   -3.1855 H       1  LIG1        0.0535
     27 H           4.4977   -1.1503    1.0888 H       1  LIG1        0.1537
     28 H          -3.0248    1.4735    0.9926 H       1  LIG1        0.1457
     29 H          -2.0324    0.0614    1.2383 H       1  LIG1        0.1457
@<TRIPOS>BOND
     1     1     3   ar
     2     1     8   ar
     3     2     4   ar
     4     2     9   ar
     5     3    13   ar
     6     4    14   ar
     7     5     7   ar
     8     5    16   ar
     9     6     7   ar
    10     6     8   ar
    11     6    10   ar
    12     7     9    1
    13     8    18    1
    14     9    15   ar
    15    10    13   ar
    16    10    16   ar
    17    11    14   ar
    18    11    15   ar
    19    11    17    1
    20    12    18    1
    21     1    19    1
    22     2    20    1
    23     3    21    1
    24     4    22    1
    25     5    23    1
    26    12    24    1
    27    12    25    1
    28    12    26    1
    29    16    27    1
    30    17    28    1
    31    17    29    1
