@<TRIPOS>MOLECULE
DB08699
 43 45 0 0 0
SMALL
USER_CHARGES

@<TRIPOS>ATOM
      1 C          -0.8485    0.7647   -0.7075 C.ar    1  LIG1       -0.0617
      2 C          -1.8741    1.7049   -0.6096 C.ar    1  LIG1       -0.0593
      3 C           0.4366    1.0863   -0.2707 C.ar    1  LIG1       -0.0586
      4 C          -0.3295    3.2886    0.3616 C.ar    1  LIG1       -0.0557
      5 C           5.3576    0.5929   -2.7758 C.ar    1  LIG1        0.1195
      6 C           3.7631    1.5526   -0.8814 C.ar    1  LIG1        0.0799
      7 C          -1.6146    2.9669   -0.0752 C.ar    1  LIG1       -0.0508
      8 C           0.6961    2.3482    0.2638 C.ar    1  LIG1       -0.0417
      9 C           3.1353    1.7199    0.3669 C.ar    1  LIG1        0.0775
     10 C           4.6417    0.5022   -0.6824 C.ar    1  LIG1        0.1546
     11 C           3.7321    2.1190   -2.1513 C.ar    1  LIG1        0.1294
     12 C          -2.7121    3.9712    0.0305 C.3     1  LIG1       -0.0398
     13 C           6.7330   -0.6812    1.3029 C.3     1  LIG1       -0.0421
     14 C           4.9309   -2.3169    0.6271 C.3     1  LIG1       -0.0421
     15 C           4.8096   -1.1355    2.8086 C.3     1  LIG1       -0.0421
     16 C           2.0992    2.6994    0.7398 C.3     1  LIG1        0.0173
     17 C           5.2149   -0.9672    1.3232 C.3     1  LIG1        0.0499
     18 N           5.4754   -0.0362   -1.5864 N.ar    1  LIG1       -0.2189
     19 N           4.5481    1.6249   -3.1132 N.ar    1  LIG1       -0.2211
     20 N           3.5735    0.8523    1.2858 N.ar    1  LIG1       -0.1829
     21 N           4.4886    0.1248    0.6185 N.ar    1  LIG1       -0.2016
     22 N           2.8729    3.1924   -2.4472 N.pl3   1  LIG1       -0.3425
     23 H          -1.0507   -0.2181   -1.1236 H       1  LIG1        0.0623
     24 H          -2.8725    1.4452   -0.9520 H       1  LIG1        0.0625
     25 H           1.2298    0.3476   -0.3515 H       1  LIG1        0.0625
     26 H          -0.1268    4.2719    0.7793 H       1  LIG1        0.0628
     27 H           5.9975    0.2215   -3.5690 H       1  LIG1        0.1063
     28 H          -3.2233    3.8781    0.9964 H       1  LIG1        0.0280
     29 H          -2.3259    4.9947   -0.0616 H       1  LIG1        0.0280
     30 H          -3.4523    3.8381   -0.7693 H       1  LIG1        0.0280
     31 H           6.9621    0.2727    1.7916 H       1  LIG1        0.0253
     32 H           7.3078   -1.4535    1.8251 H       1  LIG1        0.0253
     33 H           7.1090   -0.6301    0.2744 H       1  LIG1        0.0253
     34 H           3.8637   -2.5625    0.6174 H       1  LIG1        0.0253
     35 H           5.2642   -2.3013   -0.4170 H       1  LIG1        0.0253
     36 H           5.4528   -3.1372    1.1335 H       1  LIG1        0.0253
     37 H           3.7367   -1.3425    2.9029 H       1  LIG1        0.0253
     38 H           5.3390   -1.9718    3.2796 H       1  LIG1        0.0253
     39 H           5.0127   -0.2274    3.3880 H       1  LIG1        0.0253
     40 H           2.3464    3.7137    0.3609 H       1  LIG1        0.0383
     41 H           2.0615    2.8490    1.8397 H       1  LIG1        0.0383
     42 H           2.2398    3.5237   -1.7448 H       1  LIG1        0.1442
     43 H           2.8370    3.5501   -3.3824 H       1  LIG1        0.1442
@<TRIPOS>BOND
     1     1     2   ar
     2     1     3   ar
     3     2     7   ar
     4     3     8   ar
     5     4     7   ar
     6     4     8   ar
     7     5    18   ar
     8     5    19   ar
     9     6     9   ar
    10     6    10   ar
    11     6    11   ar
    12     7    12    1
    13     8    16    1
    14     9    16    1
    15     9    20   ar
    16    10    18   ar
    17    10    21   ar
    18    11    19   ar
    19    11    22    1
    20    13    17    1
    21    14    17    1
    22    15    17    1
    23    17    21    1
    24    20    21   ar
    25     1    23    1
    26     2    24    1
    27     3    25    1
    28     4    26    1
    29     5    27    1
    30    12    28    1
    31    12    29    1
    32    12    30    1
    33    13    31    1
    34    13    32    1
    35    13    33    1
    36    14    34    1
    37    14    35    1
    38    14    36    1
    39    15    37    1
    40    15    38    1
    41    15    39    1
    42    16    40    1
    43    16    41    1
    44    22    42    1
    45    22    43    1
