@<TRIPOS>MOLECULE
DB08047
 37 39 0 0 0
SMALL
USER_CHARGES

@<TRIPOS>ATOM
      1 C           5.0500    2.8137   -2.1000 C.ar    1  LIG1       -0.0608
      2 C           3.8432    2.6043   -1.4962 C.ar    1  LIG1       -0.0507
      3 C           1.1337    2.8408    0.5704 C.ar    1  LIG1       -0.0475
      4 C           6.0326    1.8319   -2.0754 C.ar    1  LIG1       -0.0480
      5 C          -0.0699    3.4749    0.7956 C.ar    1  LIG1       -0.0312
      6 C          -1.2556    1.4927    0.1197 C.ar    1  LIG1       -0.0013
      7 C           3.5931    1.3890   -0.8540 C.ar    1  LIG1        0.0262
      8 C           1.1525    1.5229    0.1162 C.ar    1  LIG1        0.0327
      9 C           5.8120    0.6373   -1.4504 C.ar    1  LIG1        0.0792
     10 C           4.5887    0.3954   -0.8291 C.ar    1  LIG1        0.0727
     11 C          -1.2654    2.8041    0.5712 C.ar    1  LIG1        0.0739
     12 C          -0.0521    0.8500   -0.1152 C.ar    1  LIG1        0.0834
     13 C           2.4442    0.8391   -0.1266 C.ar    1  LIG1        0.1004
     14 C           5.0985   -2.8364    2.3602 C.2     1  LIG1       -0.1014
     15 C           5.3774   -1.8947    1.4932 C.2     1  LIG1       -0.0725
     16 C           4.7675   -1.9342    0.1157 C.3     1  LIG1        0.0524
     17 C           6.8894   -0.4160   -1.4328 C.3     1  LIG1        0.4179
     18 N           2.7683   -0.3682    0.2690 N.ar    1  LIG1       -0.1798
     19 N           4.0687   -0.6734   -0.1453 N.ar    1  LIG1       -0.2199
     20 O          -2.4481    3.4346    0.7950 O.3     1  LIG1       -0.3608
     21 O          -0.0407   -0.4344   -0.5573 O.3     1  LIG1       -0.3601
     22 F           8.0587    0.1032   -1.9988 F       1  LIG1       -0.1660
     23 F           7.1424   -0.8023   -0.1122 F       1  LIG1       -0.1660
     24 F           6.4676   -1.5271   -2.1709 F       1  LIG1       -0.1660
     25 H           5.2433    3.7520   -2.5985 H       1  LIG1        0.0623
     26 H           3.0842    3.3722   -1.5194 H       1  LIG1        0.0630
     27 H           2.0615    3.3648    0.7462 H       1  LIG1        0.0631
     28 H           6.9823    2.0153   -2.5559 H       1  LIG1        0.0629
     29 H          -0.0832    4.4958    1.1479 H       1  LIG1        0.0650
     30 H          -2.1871    0.9742   -0.0531 H       1  LIG1        0.0678
     31 H           5.5355   -2.8081    3.3473 H       1  LIG1        0.0535
     32 H           4.4281   -3.6386    2.0892 H       1  LIG1        0.0535
     33 H           6.0443   -1.0901    1.7656 H       1  LIG1        0.0587
     34 H           5.5540   -2.0739   -0.6260 H       1  LIG1        0.0535
     35 H           4.0599   -2.7611    0.0550 H       1  LIG1        0.0535
     36 H          -2.6963    3.8658   -0.0343 H       1  LIG1        0.2182
     37 H          -0.0482   -0.3974   -1.5236 H       1  LIG1        0.2182
@<TRIPOS>BOND
     1     1     2   ar
     2     1     4   ar
     3     2     7   ar
     4     3     5   ar
     5     3     8   ar
     6     4     9   ar
     7     5    11   ar
     8     6    11   ar
     9     6    12   ar
    10     7    10   ar
    11     7    13   ar
    12     8    12   ar
    13     8    13    1
    14     9    10   ar
    15     9    17    1
    16    10    19   ar
    17    11    20    1
    18    12    21    1
    19    13    18   ar
    20    14    15    2
    21    15    16    1
    22    16    19    1
    23    17    22    1
    24    17    23    1
    25    17    24    1
    26    18    19   ar
    27     1    25    1
    28     2    26    1
    29     3    27    1
    30     4    28    1
    31     5    29    1
    32     6    30    1
    33    14    31    1
    34    14    32    1
    35    15    33    1
    36    16    34    1
    37    16    35    1
    38    20    36    1
    39    21    37    1
