@<TRIPOS>MOLECULE
DB08182
 35 37 0 0 0
SMALL
USER_CHARGES

@<TRIPOS>ATOM
      1 C           5.1677    1.9221   -2.5194 C.ar    1  LIG1       -0.0126
      2 C           1.1824    3.1286    0.2612 C.ar    1  LIG1       -0.0171
      3 C           6.0227    0.9455   -2.0263 C.ar    1  LIG1        0.0317
      4 C          -0.0740    3.6992    0.2731 C.ar    1  LIG1        0.0328
      5 C           2.7674    0.0474    0.8831 C.ar    1  LIG1        0.0045
      6 C           3.5903    1.2372   -0.8507 C.ar    1  LIG1        0.0559
      7 C           2.4702    1.0679    0.0056 C.ar    1  LIG1        0.0276
      8 C           3.9174    2.0809   -1.9244 C.ar    1  LIG1        0.0879
      9 C           1.2175    1.7668    0.0415 C.ar    1  LIG1        0.0777
     10 C           4.5425    0.3010   -0.4586 C.ar    1  LIG1        0.1318
     11 C          -1.0484    1.6832   -0.1187 C.ar    1  LIG1        0.2114
     12 C           4.8386    5.1492   -3.2686 C.3     1  LIG1       -0.0632
     13 C           3.5015    4.8304   -3.9131 C.3     1  LIG1       -0.0319
     14 C           3.1431    3.3588   -3.7747 C.3     1  LIG1        0.0531
     15 N           5.7612    0.1064   -0.9971 N.ar    1  LIG1       -0.2404
     16 N          -1.2149    3.0038    0.0860 N.ar    1  LIG1       -0.2238
     17 N           0.1175    1.0101   -0.1528 N.ar    1  LIG1       -0.2152
     18 N           4.0267   -0.4100    0.5927 N.ar    1  LIG1       -0.3048
     19 N          -2.2219    0.9232   -0.3175 N.pl3   1  LIG1       -0.3273
     20 O           3.0558    3.0344   -2.3908 O.3     1  LIG1       -0.3452
     21 H           5.4717    2.5472   -3.3526 H       1  LIG1        0.0667
     22 H           2.0737    3.7240    0.4159 H       1  LIG1        0.0662
     23 H           7.0013    0.8079   -2.4786 H       1  LIG1        0.0841
     24 H          -0.2019    4.7637    0.4374 H       1  LIG1        0.0842
     25 H           2.2004   -0.3980    1.6895 H       1  LIG1        0.0797
     26 H           4.8358    4.8817   -2.2070 H       1  LIG1        0.0231
     27 H           5.6398    4.5867   -3.7581 H       1  LIG1        0.0231
     28 H           5.0710    6.2153   -3.3540 H       1  LIG1        0.0231
     29 H           3.5251    5.1051   -4.9745 H       1  LIG1        0.0287
     30 H           2.7140    5.4450   -3.4606 H       1  LIG1        0.0287
     31 H           2.1773    3.1459   -4.2441 H       1  LIG1        0.0572
     32 H           3.9091    2.7253   -4.2332 H       1  LIG1        0.0572
     33 H           4.5029   -1.1560    1.0803 H       1  LIG1        0.1537
     34 H          -3.1106    1.3750   -0.2522 H       1  LIG1        0.1457
     35 H          -2.1467   -0.0672   -0.4258 H       1  LIG1        0.1457
@<TRIPOS>BOND
     1     1     3   ar
     2     1     8   ar
     3     2     4   ar
     4     2     9   ar
     5     3    15   ar
     6     4    16   ar
     7     5     7   ar
     8     5    18   ar
     9     6     7   ar
    10     6     8   ar
    11     6    10   ar
    12     7     9    1
    13     8    20    1
    14     9    17   ar
    15    10    15   ar
    16    10    18   ar
    17    11    16   ar
    18    11    17   ar
    19    11    19    1
    20    12    13    1
    21    13    14    1
    22    14    20    1
    23     1    21    1
    24     2    22    1
    25     3    23    1
    26     4    24    1
    27     5    25    1
    28    12    26    1
    29    12    27    1
    30    12    28    1
    31    13    29    1
    32    13    30    1
    33    14    31    1
    34    14    32    1
    35    18    33    1
    36    19    34    1
    37    19    35    1
