@<TRIPOS>MOLECULE
DB08036
 37 42 0 0 0
SMALL
USER_CHARGES

@<TRIPOS>ATOM
      1 C           7.2086   -2.9335    1.3596 C.ar    1  LIG1       -0.0615
      2 C          -0.3711    3.6165   -0.9776 C.ar    1  LIG1       -0.0615
      3 C           6.4003   -3.4467    2.3653 C.ar    1  LIG1       -0.0603
      4 C          -1.1233    3.0528    0.0466 C.ar    1  LIG1       -0.0603
      5 C           6.7595   -1.8906    0.5420 C.ar    1  LIG1       -0.0524
      6 C           0.9187    3.1535   -1.2556 C.ar    1  LIG1       -0.0524
      7 C           5.1208   -2.9361    2.5857 C.ar    1  LIG1       -0.0402
      8 C          -0.6139    2.0113    0.8251 C.ar    1  LIG1       -0.0402
      9 C           5.4695   -1.3354    0.7224 C.ar    1  LIG1        0.0058
     10 C           1.4784    2.1001   -0.4944 C.ar    1  LIG1        0.0053
     11 C           4.7552   -0.2562    0.0230 C.ar    1  LIG1        0.0197
     12 C           2.7839    1.4364   -0.5736 C.ar    1  LIG1        0.0124
     13 C           4.9583    0.6415   -1.0259 C.ar    1  LIG1        0.0523
     14 C           3.9358    1.5372   -1.3534 C.ar    1  LIG1       -0.0077
     15 C           4.6604   -1.8900    1.7714 C.ar    1  LIG1        0.0384
     16 C           0.6790    1.5388    0.5552 C.ar    1  LIG1        0.0383
     17 C           3.5679   -0.3551    0.8213 C.ar    1  LIG1        0.0614
     18 C           2.5357    0.5322    0.5079 C.ar    1  LIG1        0.0610
     19 C           6.0800    0.8773   -1.9273 C.2     1  LIG1        0.2443
     20 C           4.3495    2.4048   -2.4937 C.3     1  LIG1        0.0381
     21 N           3.4322   -1.2485    1.8265 N.ar    1  LIG1       -0.3123
     22 N           1.3725    0.5235    1.1990 N.ar    1  LIG1       -0.3123
     23 N           5.6869    1.9137   -2.7697 N.am    1  LIG1       -0.3071
     24 O           7.1349    0.2734   -1.9211 O.2     1  LIG1       -0.2718
     25 H           8.2023   -3.3451    1.2041 H       1  LIG1        0.0623
     26 H          -0.7886    4.4263   -1.5702 H       1  LIG1        0.0623
     27 H           6.7678   -4.2569    2.9896 H       1  LIG1        0.0623
     28 H          -2.1243    3.4276    0.2452 H       1  LIG1        0.0623
     29 H           7.4213   -1.5177   -0.2328 H       1  LIG1        0.0630
     30 H           1.4874    3.6106   -2.0613 H       1  LIG1        0.0630
     31 H           4.4955   -3.3441    3.3744 H       1  LIG1        0.0642
     32 H          -1.2112    1.5794    1.6225 H       1  LIG1        0.0642
     33 H           3.7256    2.2561   -3.3782 H       1  LIG1        0.0518
     34 H           4.4080    3.4597   -2.2156 H       1  LIG1        0.0518
     35 H           2.6490   -1.4045    2.4476 H       1  LIG1        0.1529
     36 H           1.0885   -0.0630    1.9729 H       1  LIG1        0.1529
     37 H           6.2778    2.2892   -3.5048 H       1  LIG1        0.1500
@<TRIPOS>BOND
     1     1     3   ar
     2     1     5   ar
     3     2     4   ar
     4     2     6   ar
     5     3     7   ar
     6     4     8   ar
     7     5     9   ar
     8     6    10   ar
     9     7    15   ar
    10     8    16   ar
    11     9    11   ar
    12     9    15   ar
    13    10    12   ar
    14    10    16   ar
    15    11    13   ar
    16    11    17   ar
    17    12    14   ar
    18    12    18   ar
    19    13    14   ar
    20    13    19    1
    21    14    20    1
    22    15    21   ar
    23    16    22   ar
    24    17    18   ar
    25    17    21   ar
    26    18    22   ar
    27    19    23   am
    28    19    24    2
    29    20    23    1
    30     1    25    1
    31     2    26    1
    32     3    27    1
    33     4    28    1
    34     5    29    1
    35     6    30    1
    36     7    31    1
    37     8    32    1
    38    20    33    1
    39    20    34    1
    40    21    35    1
    41    22    36    1
    42    23    37    1
