@<TRIPOS>MOLECULE
DB08049
 29 31 0 0 0
SMALL
USER_CHARGES

@<TRIPOS>ATOM
      1 C           6.0091   -3.2420    2.3821 C.ar    1  LIG1       -0.0622
      2 C           6.0751   -1.9367    2.8694 C.ar    1  LIG1       -0.0616
      3 C           5.1627   -3.5465    1.3161 C.ar    1  LIG1       -0.0616
      4 C           5.2946   -0.9359    2.2907 C.ar    1  LIG1       -0.0543
      5 C           4.3822   -2.5458    0.7374 C.ar    1  LIG1       -0.0543
      6 C           5.2690    0.5737   -1.1386 C.ar    1  LIG1       -0.0489
      7 C           5.5923    1.4191   -2.2051 C.ar    1  LIG1       -0.0286
      8 C           4.4481   -1.2404    1.2247 C.ar    1  LIG1       -0.0175
      9 C           4.0224    0.6696   -0.5062 C.ar    1  LIG1        0.0164
     10 C           3.1245    1.6279   -0.9733 C.ar    1  LIG1        0.1261
     11 C           4.6758    2.3698   -2.6528 C.ar    1  LIG1        0.1041
     12 C           3.4332    2.4780   -2.0359 C.ar    1  LIG1        0.1335
     13 C           2.4117   -0.0234    1.1563 C.ar    1  LIG1        0.0195
     14 C           3.6308   -0.1933    0.6188 C.ar    1  LIG1       -0.0023
     15 C           1.4493    0.9839    0.6740 C.ar    1  LIG1        0.2912
     16 O           0.3452    1.1059    1.1933 O.2     1  LIG1       -0.2609
     17 O           1.8540    1.7796   -0.3862 O.2     1  LIG1       -0.2712
     18 O           5.0090    3.1840   -3.6924 O.3     1  LIG1       -0.3581
     19 O           2.5321    3.4035   -2.4671 O.3     1  LIG1       -0.3561
     20 H           6.6178   -4.0210    2.8318 H       1  LIG1        0.0622
     21 H           6.7351   -1.6991    3.6988 H       1  LIG1        0.0623
     22 H           5.1121   -4.5625    0.9358 H       1  LIG1        0.0623
     23 H           5.3568    0.0769    2.6817 H       1  LIG1        0.0629
     24 H           3.7272   -2.7989   -0.0929 H       1  LIG1        0.0629
     25 H           6.0075   -0.1559   -0.8154 H       1  LIG1        0.0631
     26 H           6.5647    1.3290   -2.6824 H       1  LIG1        0.0651
     27 H           2.0702   -0.6323    1.9900 H       1  LIG1        0.0694
     28 H           5.9042    2.9792   -4.0054 H       1  LIG1        0.2183
     29 H           2.8999    3.9102   -3.2084 H       1  LIG1        0.2184
@<TRIPOS>BOND
     1     1     2   ar
     2     1     3   ar
     3     2     4   ar
     4     3     5   ar
     5     4     8   ar
     6     5     8   ar
     7     6     7   ar
     8     6     9   ar
     9     7    11   ar
    10     8    14    1
    11     9    10   ar
    12     9    14   ar
    13    10    12   ar
    14    10    17   ar
    15    11    12   ar
    16    11    18    1
    17    12    19    1
    18    13    14   ar
    19    13    15   ar
    20    15    16    2
    21    15    17   ar
    22     1    20    1
    23     2    21    1
    24     3    22    1
    25     4    23    1
    26     5    24    1
    27     6    25    1
    28     7    26    1
    29    13    27    1
    30    18    28    1
    31    19    29    1
