@<TRIPOS>MOLECULE
DB08232
 45 48 0 0 0
SMALL
USER_CHARGES

@<TRIPOS>ATOM
      1 C           5.4154   -2.0970    2.9675 C.ar    1  LIG1        0.0000
      2 C           4.8940   -1.0659    2.2121 C.ar    1  LIG1        0.0000
      3 C          -1.3832    4.4924    0.1018 C.ar    1  LIG1        0.0000
      4 C           5.9861   -3.1928    2.3460 C.ar    1  LIG1        0.0000
      5 C          -2.6992    4.2278    0.4275 C.ar    1  LIG1        0.0000
      6 C           5.1413    0.5360   -1.0220 C.ar    1  LIG1        0.0000
      7 C           3.3522    2.0448   -1.5399 C.ar    1  LIG1        0.0000
      8 C           5.5145   -2.2403    0.2002 C.ar    1  LIG1        0.0000
      9 C           0.1404    1.2498    0.0637 C.ar    1  LIG1        0.0000
     10 C           4.9432   -1.1309    0.8211 C.ar    1  LIG1        0.0000
     11 C           4.3842   -0.0262    0.0041 C.ar    1  LIG1        0.0000
     12 C           2.5800    1.4939   -0.5166 C.ar    1  LIG1        0.0000
     13 C           4.6232    1.5643   -1.7853 C.ar    1  LIG1        0.0000
     14 C          -0.9670    2.1175    0.2337 C.ar    1  LIG1        0.0000
     15 C          -0.4970    3.4230    0.0017 C.ar    1  LIG1        0.0000
     16 C           6.0378   -3.2626    0.9653 C.ar    1  LIG1        0.0000
     17 C           3.1002    0.4565    0.2646 C.ar    1  LIG1        0.0000
     18 C           1.2193    2.0086   -0.2551 C.ar    1  LIG1        0.0000
     19 C          -3.1027    2.9105    0.6456 C.ar    1  LIG1        0.0000
     20 C           6.2604    3.3132   -2.3487 C.2     1  LIG1        0.0000
     21 C           5.4501    2.1649   -2.8928 C.3     1  LIG1        0.0000
     22 N          -2.2479    1.9094    0.5460 N.ar    1  LIG1        0.0000
     23 N           0.8474    3.3316   -0.2966 N.ar    1  LIG1        0.0000
     24 N          -4.4277    2.6476    0.9792 N.pl3   1  LIG1        0.0000
     25 N           6.6508   -4.4383    0.3074 N.pl3   1  LIG1        0.0000
     26 O           7.0020    3.9395   -3.0863 O.co2   1  LIG1       -0.5000
     27 O           6.1745    3.6156   -1.1706 O.co2   1  LIG1       -0.5000
     28 O           7.1091   -5.3433    0.9816 O.2     1  LIG1        0.0000
     29 O           6.6967   -4.5009   -0.9081 O.2     1  LIG1        0.0000
     30 O           2.3563   -0.0860    1.2624 O.3     1  LIG1        0.0000
     31 H           5.3778   -2.0478    4.0456 H       1  LIG1        0.0000
     32 H           4.4491   -0.2105    2.6984 H       1  LIG1        0.0000
     33 H          -1.0495    5.5049   -0.0715 H       1  LIG1        0.0000
     34 H           6.3936   -3.9969    2.9409 H       1  LIG1        0.0000
     35 H          -3.4111    5.0354    0.5126 H       1  LIG1        0.0000
     36 H           6.1362    0.1664   -1.2213 H       1  LIG1        0.0000
     37 H           2.9548    2.8488   -2.1416 H       1  LIG1        0.0000
     38 H           5.5551   -2.2959   -0.8776 H       1  LIG1        0.0000
     39 H           0.1279    0.1749    0.1693 H       1  LIG1        0.0000
     40 H           6.1205    1.4069   -3.2978 H       1  LIG1        0.0000
     41 H           4.7917    2.5269   -3.6825 H       1  LIG1        0.0000
     42 H           1.4330    4.0772   -0.5018 H       1  LIG1        0.0000
     43 H          -4.7163    1.7350    1.1364 H       1  LIG1        0.0000
     44 H          -5.0627    3.3769    1.0546 H       1  LIG1        0.0000
     45 H           2.5551    0.4168    2.0642 H       1  LIG1        0.0000
@<TRIPOS>BOND
     1     1     2   ar
     2     1     4   ar
     3     2    10   ar
     4     3     5   ar
     5     3    15   ar
     6     4    16   ar
     7     5    19   ar
     8     6    11   ar
     9     6    13   ar
    10     7    12   ar
    11     7    13   ar
    12     8    10   ar
    13     8    16   ar
    14     9    14   ar
    15     9    18   ar
    16    10    11    1
    17    11    17   ar
    18    12    17   ar
    19    12    18    1
    20    13    21    1
    21    14    15   ar
    22    14    22   ar
    23    15    23   ar
    24    16    25    1
    25    17    30    1
    26    18    23   ar
    27    19    22   ar
    28    19    24    1
    29    20    21    1
    30    20    26   ar
    31    20    27   ar
    32    25    28    2
    33    25    29    2
    34     1    31    1
    35     2    32    1
    36     3    33    1
    37     4    34    1
    38     5    35    1
    39     6    36    1
    40     7    37    1
    41     8    38    1
    42     9    39    1
    43    21    40    1
    44    21    41    1
    45    23    42    1
    46    24    43    1
    47    24    44    1
    48    30    45    1
