@<TRIPOS>MOLECULE
DB08052
 41 45 0 0 0
SMALL
USER_CHARGES

@<TRIPOS>ATOM
      1 C          -0.6921    4.8718    1.1582 C.ar    1  LIG1       -0.0375
      2 C           1.0557    2.9719    0.7322 C.ar    1  LIG1       -0.0403
      3 C           0.1445    1.3760   -0.8021 C.ar    1  LIG1        0.0386
      4 C          -1.9592    5.0315    0.6399 C.ar    1  LIG1       -0.0051
      5 C           5.9782    0.7190   -1.7195 C.ar    1  LIG1        0.1195
      6 C          -0.1531    3.6765    0.6130 C.ar    1  LIG1        0.0169
      7 C           3.5529    1.1510   -0.7280 C.ar    1  LIG1        0.0844
      8 C           1.1968    1.7934    0.0016 C.ar    1  LIG1        0.0217
      9 C           2.4073    1.0279    0.0801 C.ar    1  LIG1        0.1045
     10 C          -1.1246    3.1436   -0.2292 C.ar    1  LIG1        0.1285
     11 C           4.4181    0.1871   -0.2410 C.ar    1  LIG1        0.1547
     12 C           4.0013    1.9220   -1.7952 C.ar    1  LIG1        0.1297
     13 C           6.6354   -2.0047    1.7994 C.3     1  LIG1       -0.0514
     14 C           5.8951   -3.2682    1.3959 C.3     1  LIG1       -0.0514
     15 C           5.5405   -1.1062    2.3635 C.3     1  LIG1       -0.0324
     16 C           4.6146   -2.7372    0.7685 C.3     1  LIG1       -0.0324
     17 C           4.2547   -1.5012    1.6104 C.3     1  LIG1        0.0474
     18 N          -1.0398    2.0127   -0.9551 N.ar    1  LIG1       -0.2399
     19 N           5.6535   -0.0896   -0.6875 N.ar    1  LIG1       -0.2189
     20 N           5.2397    1.6968   -2.2962 N.ar    1  LIG1       -0.2211
     21 N           2.5281    0.0686    1.0044 N.ar    1  LIG1       -0.1783
     22 N          -2.2112    3.9776   -0.1998 N.ar    1  LIG1       -0.3055
     23 N           3.7608   -0.4250    0.7845 N.ar    1  LIG1       -0.2035
     24 N           3.1948    2.9261   -2.3608 N.pl3   1  LIG1       -0.3425
     25 H          -0.2104    5.5451    1.8536 H       1  LIG1        0.0643
     26 H           1.8491    3.3402    1.3763 H       1  LIG1        0.0638
     27 H           0.2233    0.4606   -1.3853 H       1  LIG1        0.0847
     28 H          -2.7031    5.8002    0.7948 H       1  LIG1        0.0790
     29 H           6.9636    0.5634   -2.1458 H       1  LIG1        0.1063
     30 H           7.4280   -2.2003    2.5274 H       1  LIG1        0.0267
     31 H           7.0886   -1.5350    0.9184 H       1  LIG1        0.0267
     32 H           6.4719   -3.8853    0.7011 H       1  LIG1        0.0267
     33 H           5.6617   -3.8726    2.2805 H       1  LIG1        0.0267
     34 H           5.4113   -1.3246    3.4308 H       1  LIG1        0.0286
     35 H           5.7997   -0.0463    2.2714 H       1  LIG1        0.0286
     36 H           4.7968   -2.4679   -0.2797 H       1  LIG1        0.0286
     37 H           3.8157   -3.4854    0.7824 H       1  LIG1        0.0286
     38 H           3.4514   -1.7260    2.3199 H       1  LIG1        0.0527
     39 H          -3.0676    3.8370   -0.7175 H       1  LIG1        0.1537
     40 H           2.2622    3.0579   -2.0195 H       1  LIG1        0.1442
     41 H           3.5276    3.4324   -3.1586 H       1  LIG1        0.1442
@<TRIPOS>BOND
     1     1     4   ar
     2     1     6   ar
     3     2     6   ar
     4     2     8   ar
     5     3     8   ar
     6     3    18   ar
     7     4    22   ar
     8     5    19   ar
     9     5    20   ar
    10     6    10   ar
    11     7     9   ar
    12     7    11   ar
    13     7    12   ar
    14     8     9    1
    15     9    21   ar
    16    10    18   ar
    17    10    22   ar
    18    11    19   ar
    19    11    23   ar
    20    12    20   ar
    21    12    24    1
    22    13    14    1
    23    13    15    1
    24    14    16    1
    25    15    17    1
    26    16    17    1
    27    17    23    1
    28    21    23   ar
    29     1    25    1
    30     2    26    1
    31     3    27    1
    32     4    28    1
    33     5    29    1
    34    13    30    1
    35    13    31    1
    36    14    32    1
    37    14    33    1
    38    15    34    1
    39    15    35    1
    40    16    36    1
    41    16    37    1
    42    17    38    1
    43    22    39    1
    44    24    40    1
    45    24    41    1
