@<TRIPOS>MOLECULE
DB08299
 40 43 0 0 0
SMALL
USER_CHARGES

@<TRIPOS>ATOM
      1 C          -0.8620    1.3095    0.7539 C.ar    1  LIG1        0.0000
      2 C           4.7978    3.2034   -3.5836 C.ar    1  LIG1        0.0000
      3 C           5.3611    2.1717   -2.8450 C.ar    1  LIG1        0.0000
      4 C           0.4294    0.9176    0.4014 C.ar    1  LIG1        0.0000
      5 C           5.2240   -2.2930    0.2330 C.ar    1  LIG1        0.0000
      6 C           4.9668   -0.8946    2.1863 C.ar    1  LIG1        0.0000
      7 C           5.6897   -3.3324    1.0383 C.ar    1  LIG1        0.0000
      8 C           5.4325   -1.9340    2.9917 C.ar    1  LIG1        0.0000
      9 C          -1.2663    2.6309    0.5636 C.ar    1  LIG1        0.0000
     10 C           5.1660    0.5323   -1.0340 C.ar    1  LIG1        0.0000
     11 C           0.9124    3.1685   -0.3316 C.ar    1  LIG1        0.0000
     12 C           3.5187    3.6047   -3.2513 C.ar    1  LIG1        0.0000
     13 C           4.6366    1.5751   -1.8041 C.ar    1  LIG1        0.0000
     14 C           4.8627   -1.0742    0.8070 C.ar    1  LIG1        0.0000
     15 C           1.3166    1.8471   -0.1413 C.ar    1  LIG1        0.0000
     16 C           5.7939   -3.1528    2.4177 C.ar    1  LIG1        0.0000
     17 C           3.3411    2.0551   -1.5435 C.ar    1  LIG1        0.0000
     18 C          -0.3791    3.5603    0.0209 C.ar    1  LIG1        0.0000
     19 C           4.3814    0.0017   -0.0261 C.ar    1  LIG1        0.0000
     20 C           2.6577    1.4403   -0.5076 C.ar    1  LIG1        0.0000
     21 C           6.2837   -4.2501    3.2675 C.2     1  LIG1        0.0000
     22 N           2.7862    3.0561   -2.2553 N.ar    1  LIG1        0.0000
     23 N           3.1361    0.4308    0.2578 N.ar    1  LIG1        0.0000
     24 N          -0.7904    4.9058   -0.1729 N.pl3   1  LIG1        0.0000
     25 O           6.3707   -4.0584    4.5382 O.co2   1  LIG1       -0.5000
     26 O           6.6095   -5.3659    2.7129 O.co2   1  LIG1       -0.5000
     27 O          -1.9563    5.2376    0.1509 O.2     1  LIG1        0.0000
     28 O           0.0236    5.7258   -0.6621 O.2     1  LIG1        0.0000
     29 H          -1.5529    0.5857    1.1762 H       1  LIG1        0.0000
     30 H           5.3433    3.6752   -4.3926 H       1  LIG1        0.0000
     31 H           6.3671    1.8362   -3.0856 H       1  LIG1        0.0000
     32 H           0.7298   -0.1159    0.5560 H       1  LIG1        0.0000
     33 H           5.1483   -2.4484   -0.8407 H       1  LIG1        0.0000
     34 H           4.6891    0.0496    2.6484 H       1  LIG1        0.0000
     35 H           5.9696   -4.2780    0.5809 H       1  LIG1        0.0000
     36 H           5.5109   -1.7847    4.0655 H       1  LIG1        0.0000
     37 H          -2.2756    2.9232    0.8429 H       1  LIG1        0.0000
     38 H           6.1662    0.1519   -1.2237 H       1  LIG1        0.0000
     39 H           1.6032    3.8956   -0.7548 H       1  LIG1        0.0000
     40 H           3.0298    4.4066   -3.7946 H       1  LIG1        0.0000
@<TRIPOS>BOND
     1     1     4   ar
     2     1     9   ar
     3     2     3   ar
     4     2    12   ar
     5     3    13   ar
     6     4    15   ar
     7     5     7   ar
     8     5    14   ar
     9     6     8   ar
    10     6    14   ar
    11     7    16   ar
    12     8    16   ar
    13     9    18   ar
    14    10    13   ar
    15    10    19   ar
    16    11    15   ar
    17    11    18   ar
    18    12    22   ar
    19    13    17   ar
    20    14    19    1
    21    15    20    1
    22    16    21    1
    23    17    20   ar
    24    17    22   ar
    25    18    24    1
    26    19    23   ar
    27    20    23   ar
    28    21    25   ar
    29    21    26   ar
    30    24    27    2
    31    24    28    2
    32     1    29    1
    33     2    30    1
    34     3    31    1
    35     4    32    1
    36     5    33    1
    37     6    34    1
    38     7    35    1
    39     8    36    1
    40     9    37    1
    41    10    38    1
    42    11    39    1
    43    12    40    1
