@<TRIPOS>MOLECULE
AG-205/04686018
 38 40 0 0 0
SMALL
USER_CHARGES

@<TRIPOS>ATOM
      1 C          -0.9003    1.7983    0.0205 C.1     1  LIG1        0.0625
      2 C          -0.4780    6.7472    0.0418 C.ar    1  LIG1       -0.1037
      3 C          -0.1963    6.1206   -1.1720 C.ar    1  LIG1       -0.1003
      4 C          -0.1750    6.1077    1.2438 C.ar    1  LIG1       -0.1000
      5 C           0.3883    4.8541   -1.1839 C.ar    1  LIG1       -0.0876
      6 C           0.4096    4.8413    1.2320 C.ar    1  LIG1       -0.0862
      7 C           5.4422    1.9050   -1.0859 C.ar    1  LIG1       -0.0617
      8 C           5.3210    0.6939    1.0011 C.ar    1  LIG1       -0.0756
      9 C           6.8272    1.7413   -1.1004 C.ar    1  LIG1       -0.0505
     10 C           6.7060    0.5302    0.9865 C.ar    1  LIG1       -0.0656
     11 C           2.6854    2.8133   -0.0075 C.ar    1  LIG1       -0.0287
     12 C           0.5333    1.7396    0.0053 C.ar    1  LIG1        0.1226
     13 C           0.6913    4.2145    0.0180 C.ar    1  LIG1       -0.0601
     14 C           4.6890    1.3813   -0.0351 C.ar    1  LIG1       -0.0260
     15 C           1.2978    2.9011    0.0053 C.ar    1  LIG1       -0.0157
     16 C           7.4593    1.0539   -0.0642 C.ar    1  LIG1       -0.0131
     17 C           3.2554    1.5505   -0.0199 C.ar    1  LIG1       -0.0073
     18 C           1.1996    0.5249   -0.0080 C.ar    1  LIG1        0.0220
     19 C           9.3921    0.1808    1.0116 C.3     1  LIG1        0.0246
     20 N          -2.0597    1.8457    0.0328 N.1     1  LIG1       -0.3818
     21 N           2.5457    0.3998   -0.0206 N.ar    1  LIG1       -0.3523
     22 N           0.4380   -0.6714   -0.0081 N.pl3   1  LIG1       -0.3647
     23 O           8.8106    0.8939   -0.0790 O.3     1  LIG1       -0.4168
     24 H          -0.9316    7.7340    0.0507 H       1  LIG1        0.1201
     25 H          -0.4307    6.6191   -2.1081 H       1  LIG1        0.1193
     26 H          -0.3927    6.5958    2.1893 H       1  LIG1        0.1203
     27 H           0.6020    4.3788   -2.1384 H       1  LIG1        0.1221
     28 H           0.6408    4.3553    2.1768 H       1  LIG1        0.1288
     29 H           4.9640    2.4431   -1.9008 H       1  LIG1        0.1546
     30 H           4.7478    0.2797    1.8271 H       1  LIG1        0.1395
     31 H           7.4086    2.1513   -1.9218 H       1  LIG1        0.1298
     32 H           7.1930   -0.0063    1.7964 H       1  LIG1        0.1139
     33 H           3.3053    3.7059   -0.0085 H       1  LIG1        0.1310
     34 H          10.4750    0.1255    0.8757 H       1  LIG1        0.1225
     35 H           8.9680   -0.8254    1.0578 H       1  LIG1        0.0901
     36 H           9.1705    0.7105    1.9412 H       1  LIG1        0.0901
     37 H          -0.5545   -0.6087    0.0491 H       1  LIG1        0.2931
     38 H           0.9160   -1.5447    0.0301 H       1  LIG1        0.2908
@<TRIPOS>BOND
     1     1    12    1
     2     1    20    3
     3     2     3   ar
     4     2     4   ar
     5     3     5   ar
     6     4     6   ar
     7     5    13   ar
     8     6    13   ar
     9     7     9   ar
    10     7    14   ar
    11     8    10   ar
    12     8    14   ar
    13     9    16   ar
    14    10    16   ar
    15    11    15   ar
    16    11    17   ar
    17    12    15   ar
    18    12    18   ar
    19    13    15    1
    20    14    17    1
    21    16    23    1
    22    17    21   ar
    23    18    21   ar
    24    18    22    1
    25    19    23    1
    26     2    24    1
    27     3    25    1
    28     4    26    1
    29     5    27    1
    30     6    28    1
    31     7    29    1
    32     8    30    1
    33     9    31    1
    34    10    32    1
    35    11    33    1
    36    19    34    1
    37    19    35    1
    38    19    36    1
    39    22    37    1
    40    22    38    1
