@<TRIPOS>MOLECULE
AK-968/41017856
 45 49 0 0 0
SMALL
USER_CHARGES

@<TRIPOS>ATOM
      1 C           7.0013    2.3403   -0.6515 C.ar    1  LIG1       -0.0759
      2 C           5.6417    2.6516   -0.6372 C.ar    1  LIG1       -0.0414
      3 C           7.4525    1.1591   -0.0626 C.ar    1  LIG1       -0.0743
      4 C           5.1846    0.6006    0.5551 C.ar    1  LIG1       -0.0338
      5 C           2.3517    1.1943   -0.0201 C.ar    1  LIG1       -0.0006
      6 C           1.1975    1.9387   -0.0031 C.ar    1  LIG1        0.0366
      7 C           4.7334    1.7819   -0.0338 C.ar    1  LIG1        0.0031
      8 C           6.5442    0.2892    0.5407 C.ar    1  LIG1       -0.0271
      9 C           1.6406    3.2749    0.0063 C.ar    1  LIG1       -0.0024
     10 C          -0.1346    1.4144    0.0034 C.2     1  LIG1        0.0868
     11 C          -0.0331    7.0643    1.3213 C.3     1  LIG1       -0.0671
     12 C          -1.8470    5.8676    0.0712 C.3     1  LIG1       -0.0686
     13 C          -0.0506    7.0831   -1.1850 C.3     1  LIG1       -0.0685
     14 C          -0.0925    4.5592    1.2917 C.3     1  LIG1       -0.0434
     15 C           1.7063    5.7834    0.0467 C.3     1  LIG1       -0.0437
     16 C          -0.1243    4.5756   -1.2150 C.3     1  LIG1       -0.0460
     17 C          -0.9525    5.8348    1.3184 C.3     1  LIG1       -0.0675
     18 C           0.8466    7.0596    0.0632 C.3     1  LIG1       -0.0676
     19 C          -0.9774    5.8562   -1.1938 C.3     1  LIG1       -0.0681
     20 C           0.8149    4.5066    0.0253 C.3     1  LIG1       -0.0119
     21 N           2.9725    3.3765   -0.0038 N.ar    1  LIG1       -0.3176
     22 N           3.3760    2.0948   -0.0196 N.ar    1  LIG1       -0.2853
     23 O          -1.1613    2.1213    0.0195 O.2     1  LIG1       -0.4591
     24 BR          7.1556   -1.3106    1.3398 Br      1  LIG1       -0.0962
     25 H           7.7086    3.0175   -1.1215 H       1  LIG1        0.1429
     26 H           5.3035    3.5759   -1.0995 H       1  LIG1        0.1523
     27 H           8.5153    0.9312   -0.0819 H       1  LIG1        0.1399
     28 H           4.4738   -0.0763    1.0247 H       1  LIG1        0.1461
     29 H           2.5221    0.1255   -0.0321 H       1  LIG1        0.2295
     30 H          -0.2702    0.3002   -0.0061 H       1  LIG1        0.2537
     31 H          -0.6334    7.9818    1.3559 H       1  LIG1        0.0501
     32 H           0.5956    7.0616    2.2199 H       1  LIG1        0.0436
     33 H          -2.5231    5.0040    0.0705 H       1  LIG1        0.0445
     34 H          -2.4775    6.7650    0.0848 H       1  LIG1        0.0429
     35 H          -0.6484    8.0028   -1.1982 H       1  LIG1        0.0429
     36 H           0.5677    7.0922   -2.0910 H       1  LIG1        0.0446
     37 H           0.5252    4.5134    2.1990 H       1  LIG1        0.0761
     38 H          -0.7449    3.6758    1.3231 H       1  LIG1        0.0445
     39 H           2.3645    5.7954   -0.8325 H       1  LIG1        0.0450
     40 H           2.3664    5.7700    0.9245 H       1  LIG1        0.0736
     41 H          -0.7792    3.6943   -1.2442 H       1  LIG1        0.0543
     42 H           0.4712    4.5467   -2.1373 H       1  LIG1        0.0536
     43 H          -1.5764    5.8392    2.2193 H       1  LIG1        0.0536
     44 H           1.4977    7.9410    0.0656 H       1  LIG1        0.0536
     45 H          -1.6184    5.8852   -2.0820 H       1  LIG1        0.0526
@<TRIPOS>BOND
     1     1     2   ar
     2     1     3   ar
     3     2     7   ar
     4     3     8   ar
     5     4     7   ar
     6     4     8   ar
     7     5     6   ar
     8     5    22   ar
     9     6     9   ar
    10     6    10    1
    11     7    22    1
    12     8    24    1
    13     9    20    1
    14     9    21   ar
    15    10    23    2
    16    11    17    1
    17    11    18    1
    18    12    17    1
    19    12    19    1
    20    13    18    1
    21    13    19    1
    22    14    17    1
    23    14    20    1
    24    15    18    1
    25    15    20    1
    26    16    19    1
    27    16    20    1
    28    21    22   ar
    29     1    25    1
    30     2    26    1
    31     3    27    1
    32     4    28    1
    33     5    29    1
    34    10    30    1
    35    11    31    1
    36    11    32    1
    37    12    33    1
    38    12    34    1
    39    13    35    1
    40    13    36    1
    41    14    37    1
    42    14    38    1
    43    15    39    1
    44    15    40    1
    45    16    41    1
    46    16    42    1
    47    17    43    1
    48    18    44    1
    49    19    45    1
