@<TRIPOS>MOLECULE
AE-848/32310059
 50 53 0 0 0
SMALL
USER_CHARGES

@<TRIPOS>ATOM
      1 C          -1.5333   -1.8872   -0.6127 C.ar    1  LIG1       -0.0990
      2 C          -1.0085   -3.0387   -0.0261 C.ar    1  LIG1       -0.0974
      3 C          -0.7975   -0.7022   -0.6034 C.ar    1  LIG1       -0.0743
      4 C           1.3616    5.3249    0.6218 C.ar    1  LIG1       -0.0878
      5 C          -0.5349    4.4243   -0.5738 C.ar    1  LIG1       -0.0785
      6 C           5.4705    1.8863   -1.0859 C.ar    1  LIG1       -0.0710
      7 C           5.3327    0.6766    1.0008 C.ar    1  LIG1       -0.0729
      8 C           0.2521   -3.0052    0.5701 C.ar    1  LIG1       -0.0618
      9 C           0.7575    6.5820    0.6334 C.ar    1  LIG1       -0.0674
     10 C          -1.1391    5.6815   -0.5624 C.ar    1  LIG1       -0.0549
     11 C           6.8531    1.7030   -1.1010 C.ar    1  LIG1       -0.0559
     12 C           6.7153    0.4931    0.9858 C.ar    1  LIG1       -0.0645
     13 C           2.7278    2.8341   -0.0063 C.ar    1  LIG1       -0.0433
     14 C           0.5602    1.7922    0.0057 C.ar    1  LIG1       -0.0428
     15 C           0.7155    4.2460    0.0182 C.ar    1  LIG1       -0.0720
     16 C           4.7102    1.3732   -0.0349 C.ar    1  LIG1       -0.0352
     17 C           0.4631   -0.6688   -0.0072 C.ar    1  LIG1       -0.0025
     18 C           1.3417    2.9422    0.0064 C.ar    1  LIG1       -0.0653
     19 C          -0.4929    6.7604    0.0412 C.ar    1  LIG1       -0.0138
     20 C           7.4755    1.0063   -0.0652 C.ar    1  LIG1       -0.0150
     21 C           0.9880   -1.8203    0.5795 C.ar    1  LIG1       -0.0075
     22 C           3.2791    1.5629   -0.0192 C.ar    1  LIG1       -0.0130
     23 C           1.2084    0.5677   -0.0080 C.ar    1  LIG1       -0.0055
     24 C          -2.3609    8.0991   -0.5703 C.3     1  LIG1        0.0240
     25 C           9.3961    0.1054    1.0099 C.3     1  LIG1        0.0237
     26 N           2.5525    0.4228   -0.0205 N.ar    1  LIG1       -0.3676
     27 O           2.2168   -1.8157    1.1708 O.3     1  LIG1       -0.4212
     28 O          -1.0823    7.9869    0.0531 O.3     1  LIG1       -0.4175
     29 O           8.8244    0.8269   -0.0804 O.3     1  LIG1       -0.4181
     30 H          -2.5148   -1.9137   -1.0771 H       1  LIG1        0.1186
     31 H          -1.5814   -3.9613   -0.0333 H       1  LIG1        0.1249
     32 H          -1.2212    0.1866   -1.0650 H       1  LIG1        0.1309
     33 H           2.3364    5.2016    1.0876 H       1  LIG1        0.1335
     34 H          -1.0514    3.5933   -1.0483 H       1  LIG1        0.1385
     35 H           4.9998    2.4315   -1.9005 H       1  LIG1        0.1379
     36 H           4.7539    0.2705    1.8270 H       1  LIG1        0.1507
     37 H           0.6545   -3.9063    1.0253 H       1  LIG1        0.1259
     38 H           1.2656    7.4185    1.1052 H       1  LIG1        0.1146
     39 H          -2.1132    5.8145   -1.0249 H       1  LIG1        0.1312
     40 H           7.4400    2.1048   -1.9224 H       1  LIG1        0.1286
     41 H           7.1948   -0.0505    1.7953 H       1  LIG1        0.1127
     42 H           3.3590    3.7185   -0.0071 H       1  LIG1        0.1329
     43 H          -0.5246    1.8525    0.0165 H       1  LIG1        0.1332
     44 H          -2.7174    9.1289   -0.4897 H       1  LIG1        0.1224
     45 H          -3.0652    7.4194   -0.0840 H       1  LIG1        0.0897
     46 H          -2.2670    7.8299   -1.6250 H       1  LIG1        0.0897
     47 H          10.4780    0.0346    0.8736 H       1  LIG1        0.1216
     48 H           8.9577   -0.8947    1.0559 H       1  LIG1        0.0895
     49 H           9.1824    0.6379    1.9396 H       1  LIG1        0.0897
     50 H           2.4199   -2.6951    1.5252 H       1  LIG1        0.3613
@<TRIPOS>BOND
     1     1     2   ar
     2     1     3   ar
     3     2     8   ar
     4     3    17   ar
     5     4     9   ar
     6     4    15   ar
     7     5    10   ar
     8     5    15   ar
     9     6    11   ar
    10     6    16   ar
    11     7    12   ar
    12     7    16   ar
    13     8    21   ar
    14     9    19   ar
    15    10    19   ar
    16    11    20   ar
    17    12    20   ar
    18    13    18   ar
    19    13    22   ar
    20    14    18   ar
    21    14    23   ar
    22    15    18    1
    23    16    22    1
    24    17    21   ar
    25    17    23    1
    26    19    28    1
    27    20    29    1
    28    21    27    1
    29    22    26   ar
    30    23    26   ar
    31    24    28    1
    32    25    29    1
    33     1    30    1
    34     2    31    1
    35     3    32    1
    36     4    33    1
    37     5    34    1
    38     6    35    1
    39     7    36    1
    40     8    37    1
    41     9    38    1
    42    10    39    1
    43    11    40    1
    44    12    41    1
    45    13    42    1
    46    14    43    1
    47    24    44    1
    48    24    45    1
    49    24    46    1
    50    25    47    1
    51    25    48    1
    52    25    49    1
    53    27    50    1
