@<TRIPOS>MOLECULE
AP-960/41299812
 40 43 0 0 0
SMALL
USER_CHARGES

@<TRIPOS>ATOM
      1 C          -0.4399    4.8035   -1.0017 C.ar    1  LIG1       -0.0412
      2 C           0.8568    5.3020    0.9749 C.ar    1  LIG1       -0.0415
      3 C           5.1346    0.9858    1.0072 C.ar    1  LIG1       -0.0416
      4 C           5.3712    1.9511   -1.1948 C.ar    1  LIG1       -0.0411
      5 C          -1.0599    6.0495   -0.9093 C.ar    1  LIG1       -0.0515
      6 C           0.2369    6.5481    1.0672 C.ar    1  LIG1       -0.0516
      7 C           6.5157    0.8040    1.0760 C.ar    1  LIG1       -0.0529
      8 C           6.7525    1.7694   -1.1260 C.ar    1  LIG1       -0.0525
      9 C           0.5184    4.4296   -0.0595 C.ar    1  LIG1        0.0067
     10 C           4.5622    1.5592   -0.1282 C.ar    1  LIG1        0.0093
     11 C          -0.7215    6.9219    0.1251 C.ar    1  LIG1       -0.0014
     12 C           7.3248    1.1958    0.0095 C.ar    1  LIG1       -0.0034
     13 C           0.9027    0.7509   -0.1244 C.ar    1  LIG1        0.0644
     14 C           0.3750    1.9832   -0.0962 C.ar    1  LIG1        0.1057
     15 C           2.3710    0.5697   -0.0982 C.ar    1  LIG1        0.1544
     16 C           2.5824    3.0689   -0.3396 C.ar    1  LIG1        0.0689
     17 C           0.0631   -0.4974   -0.1240 C.3     1  LIG1       -0.0179
     18 C          -1.4076   -0.1779   -0.3542 C.3     1  LIG1       -0.0251
     19 C          -1.7721    1.0645    0.4362 C.3     1  LIG1        0.0420
     20 N           1.1609    3.1391   -0.1555 N.ar    1  LIG1       -0.2340
     21 N           3.1312    1.7480   -0.1993 N.ar    1  LIG1       -0.2170
     22 O           2.8260   -0.5664    0.0441 O.2     1  LIG1       -0.4465
     23 O          -0.9958    2.1896    0.0183 O.3     1  LIG1       -0.3628
     24 S           3.5198    4.4149   -0.8377 S.2     1  LIG1       -0.2464
     25 CL         -1.4866    8.4596    0.2389 Cl      1  LIG1       -0.1297
     26 CL          9.0292    0.9715    0.0945 Cl      1  LIG1       -0.1328
     27 H          -0.7114    4.1313   -1.8116 H       1  LIG1        0.1507
     28 H           1.6022    5.0209    1.7144 H       1  LIG1        0.1501
     29 H           4.5135    0.6765    1.8440 H       1  LIG1        0.1482
     30 H           4.9357    2.3991   -2.0843 H       1  LIG1        0.1489
     31 H          -1.8047    6.3277   -1.6504 H       1  LIG1        0.1469
     32 H           0.5102    7.2179    1.8785 H       1  LIG1        0.1468
     33 H           6.9482    0.3560    1.9669 H       1  LIG1        0.1452
     34 H           7.3708    2.0793   -1.9645 H       1  LIG1        0.1455
     35 H           0.4206   -1.1649   -0.9178 H       1  LIG1        0.0743
     36 H           0.1664   -1.0326    0.8269 H       1  LIG1        0.0824
     37 H          -1.6062   -0.0367   -1.4214 H       1  LIG1        0.0729
     38 H          -2.0173   -1.0223   -0.0089 H       1  LIG1        0.0607
     39 H          -2.8370    1.3077    0.3361 H       1  LIG1        0.1165
     40 H          -1.5708    0.9034    1.5003 H       1  LIG1        0.1505
@<TRIPOS>BOND
     1     1     5   ar
     2     1     9   ar
     3     2     6   ar
     4     2     9   ar
     5     3     7   ar
     6     3    10   ar
     7     4     8   ar
     8     4    10   ar
     9     5    11   ar
    10     6    11   ar
    11     7    12   ar
    12     8    12   ar
    13     9    20    1
    14    10    21    1
    15    11    25    1
    16    12    26    1
    17    13    14   ar
    18    13    15   ar
    19    13    17    1
    20    14    20   ar
    21    14    23    1
    22    15    21   ar
    23    15    22    2
    24    16    20   ar
    25    16    21   ar
    26    16    24    2
    27    17    18    1
    28    18    19    1
    29    19    23    1
    30     1    27    1
    31     2    28    1
    32     3    29    1
    33     4    30    1
    34     5    31    1
    35     6    32    1
    36     7    33    1
    37     8    34    1
    38    17    35    1
    39    17    36    1
    40    18    37    1
    41    18    38    1
    42    19    39    1
    43    19    40    1
