@<TRIPOS>MOLECULE
AE-842/32631041
 45 47 0 0 0
SMALL
USER_CHARGES

@<TRIPOS>ATOM
      1 C           7.5566    1.1241   -0.0635 C.ar    1  LIG1       -0.1019
      2 C          -0.6721    6.9541    0.0448 C.ar    1  LIG1       -0.1017
      3 C           6.7496    0.6902    0.9882 C.ar    1  LIG1       -0.0990
      4 C           7.0056    1.8759   -1.1012 C.ar    1  LIG1       -0.0970
      5 C          -0.8169    6.0459   -1.0039 C.ar    1  LIG1       -0.0991
      6 C           0.2232    6.6867    1.0805 C.ar    1  LIG1       -0.0967
      7 C           5.3915    1.0078    1.0021 C.ar    1  LIG1       -0.0822
      8 C           5.6474    2.1935   -1.0873 C.ar    1  LIG1       -0.0791
      9 C          -0.0665    4.8702   -1.0169 C.ar    1  LIG1       -0.0826
     10 C           0.9736    5.5109    1.0675 C.ar    1  LIG1       -0.0790
     11 C           4.8403    1.7595   -0.0357 C.ar    1  LIG1       -0.0441
     12 C           0.8288    4.6027    0.0188 C.ar    1  LIG1       -0.0445
     13 C           2.3411    1.2533   -0.0135 C.ar    1  LIG1        0.0999
     14 C           1.1848    2.0717    0.0026 C.ar    1  LIG1        0.0998
     15 C           3.4362    2.0887   -0.0206 C.ar    1  LIG1        0.0036
     16 C           1.6085    3.3824    0.0047 C.ar    1  LIG1        0.0033
     17 C           2.3990   -0.1827   -0.0209 C.2     1  LIG1        0.1966
     18 C          -0.1891    1.6498    0.0160 C.2     1  LIG1        0.1964
     19 C           3.8168    4.5638   -0.0119 C.3     1  LIG1        0.0048
     20 C           1.7607   -2.1497   -1.2383 C.3     1  LIG1        0.0384
     21 C          -1.7003   -0.0798   -0.6789 C.3     1  LIG1        0.0384
     22 N           2.9789    3.3805   -0.0097 N.ar    1  LIG1       -0.3446
     23 O           2.9474   -0.8830    0.8544 O.2     1  LIG1       -0.4334
     24 O          -1.1287    2.2825    0.5396 O.2     1  LIG1       -0.4334
     25 O           1.7716   -0.7231   -1.1181 O.3     1  LIG1       -0.3476
     26 O          -0.3702    0.4470   -0.6242 O.3     1  LIG1       -0.3476
     27 H           8.6143    0.8773   -0.0739 H       1  LIG1        0.1221
     28 H          -1.2560    7.8699    0.0546 H       1  LIG1        0.1224
     29 H           7.1790    0.1047    1.7960 H       1  LIG1        0.1217
     30 H           7.6342    2.2147   -1.9196 H       1  LIG1        0.1233
     31 H          -1.5142    6.2543   -1.8101 H       1  LIG1        0.1221
     32 H           0.3367    7.3944    1.8966 H       1  LIG1        0.1237
     33 H           4.7762    0.6643    1.8302 H       1  LIG1        0.1245
     34 H           5.2327    2.7794   -1.9041 H       1  LIG1        0.1317
     35 H          -0.1888    4.1735   -1.8428 H       1  LIG1        0.1249
     36 H           1.6664    5.3165    1.8827 H       1  LIG1        0.1320
     37 H           4.0016    4.8443   -1.0523 H       1  LIG1        0.1197
     38 H           3.3057    5.3730    0.5170 H       1  LIG1        0.1110
     39 H           4.7581    4.3410    0.4981 H       1  LIG1        0.1117
     40 H           1.2318   -2.4351   -2.1510 H       1  LIG1        0.1267
     41 H           1.2666   -2.5859   -0.3666 H       1  LIG1        0.0975
     42 H           2.7908   -2.5101   -1.2891 H       1  LIG1        0.0965
     43 H          -1.6938   -1.0330   -1.2133 H       1  LIG1        0.1267
     44 H          -2.3543    0.6317   -1.1891 H       1  LIG1        0.0975
     45 H          -2.0620   -0.2384    0.3398 H       1  LIG1        0.0965
@<TRIPOS>BOND
     1     1     3   ar
     2     1     4   ar
     3     2     5   ar
     4     2     6   ar
     5     3     7   ar
     6     4     8   ar
     7     5     9   ar
     8     6    10   ar
     9     7    11   ar
    10     8    11   ar
    11     9    12   ar
    12    10    12   ar
    13    11    15    1
    14    12    16    1
    15    13    14   ar
    16    13    15   ar
    17    13    17    1
    18    14    16   ar
    19    14    18    1
    20    15    22   ar
    21    16    22   ar
    22    17    23    2
    23    17    25    1
    24    18    24    2
    25    18    26    1
    26    19    22    1
    27    20    25    1
    28    21    26    1
    29     1    27    1
    30     2    28    1
    31     3    29    1
    32     4    30    1
    33     5    31    1
    34     6    32    1
    35     7    33    1
    36     8    34    1
    37     9    35    1
    38    10    36    1
    39    19    37    1
    40    19    38    1
    41    19    39    1
    42    20    40    1
    43    20    41    1
    44    20    42    1
    45    21    43    1
    46    21    44    1
    47    21    45    1
