@<TRIPOS>MOLECULE
AE-848/08335002
 35 38 0 0 0
SMALL
USER_CHARGES

@<TRIPOS>ATOM
      1 C           7.5075    1.0082   -0.0644 C.ar    1  LIG1       -0.1071
      2 C           6.6795    0.6161    0.9873 C.ar    1  LIG1       -0.0998
      3 C           6.9958    1.7885   -1.1013 C.ar    1  LIG1       -0.1027
      4 C          -0.8633    5.9457   -1.0047 C.ar    1  LIG1       -0.0873
      5 C           5.3398    1.0043    1.0023 C.ar    1  LIG1       -0.0771
      6 C           5.6561    2.1766   -1.0864 C.ar    1  LIG1       -0.0815
      7 C          -0.0369    4.8222   -1.0183 C.ar    1  LIG1       -0.0672
      8 C          -0.7800    6.8601    0.0454 C.ar    1  LIG1       -0.0780
      9 C           0.9558    5.5271    1.0685 C.ar    1  LIG1       -0.0428
     10 C           4.8281    1.7845   -0.0345 C.ar    1  LIG1       -0.0431
     11 C           0.8726    4.6128    0.0183 C.ar    1  LIG1       -0.0075
     12 C           0.1295    6.6507    1.0821 C.ar    1  LIG1       -0.0288
     13 C           3.4536    2.1827   -0.0196 C.ar    1  LIG1        0.0051
     14 C           2.3739    1.3319   -0.0146 C.ar    1  LIG1       -0.0022
     15 C           1.7303    3.4470    0.0040 C.ar    1  LIG1        0.0404
     16 C           2.1590   -0.0723   -0.0208 C.ar    1  LIG1       -0.0573
     17 C           0.8962   -0.5435   -0.0111 C.ar    1  LIG1       -0.0848
     18 C          -0.2518    0.3525    0.0055 C.ar    1  LIG1       -0.0699
     19 C          -0.0466    1.6805    0.0111 C.ar    1  LIG1       -0.0301
     20 N           3.0454    3.4941   -0.0081 N.ar    1  LIG1       -0.3508
     21 N           1.2604    2.1582    0.0010 N.ar    1  LIG1       -0.3084
     22 BR          0.2398    7.8898    2.5052 Br      1  LIG1       -0.1043
     23 H           8.5509    0.7069   -0.0757 H       1  LIG1        0.1149
     24 H           7.0779    0.0097    1.7954 H       1  LIG1        0.1178
     25 H           7.6410    2.0947   -1.9194 H       1  LIG1        0.1171
     26 H          -1.5717    6.1089   -1.8118 H       1  LIG1        0.1332
     27 H           4.7069    0.6905    1.8292 H       1  LIG1        0.1293
     28 H           5.2725    2.7850   -1.9021 H       1  LIG1        0.1216
     29 H          -0.1130    4.1192   -1.8447 H       1  LIG1        0.1295
     30 H          -1.4312    7.7304    0.0409 H       1  LIG1        0.1381
     31 H           1.6657    5.3627    1.8769 H       1  LIG1        0.1559
     32 H           3.0036   -0.7525   -0.0337 H       1  LIG1        0.1546
     33 H           0.7016   -1.6106   -0.0161 H       1  LIG1        0.1328
     34 H          -1.2482   -0.0725    0.0123 H       1  LIG1        0.1441
     35 H          -0.8621    2.3934    0.0228 H       1  LIG1        0.1961
@<TRIPOS>BOND
     1     1     2   ar
     2     1     3   ar
     3     2     5   ar
     4     3     6   ar
     5     4     7   ar
     6     4     8   ar
     7     5    10   ar
     8     6    10   ar
     9     7    11   ar
    10     8    12   ar
    11     9    11   ar
    12     9    12   ar
    13    10    13    1
    14    11    15    1
    15    12    22    1
    16    13    14   ar
    17    13    20   ar
    18    14    16   ar
    19    14    21   ar
    20    15    20   ar
    21    15    21   ar
    22    16    17   ar
    23    17    18   ar
    24    18    19   ar
    25    19    21   ar
    26     1    23    1
    27     2    24    1
    28     3    25    1
    29     4    26    1
    30     5    27    1
    31     6    28    1
    32     7    29    1
    33     8    30    1
    34     9    31    1
    35    16    32    1
    36    17    33    1
    37    18    34    1
    38    19    35    1
