@<TRIPOS>MOLECULE
AF-399/34013039
 37 40 0 0 0
SMALL
USER_CHARGES

@<TRIPOS>ATOM
      1 C           7.5075    1.0088   -0.0644 C.ar    1  LIG1       -0.1061
      2 C           6.5524    0.1942    0.5436 C.ar    1  LIG1       -0.0990
      3 C           7.1229    2.2113   -0.6576 C.ar    1  LIG1       -0.1018
      4 C           5.2127    0.5820    0.5585 C.ar    1  LIG1       -0.0767
      5 C           5.7830    2.5991   -0.6426 C.ar    1  LIG1       -0.0811
      6 C           0.9548    5.5262    1.0695 C.ar    1  LIG1       -0.0481
      7 C          -0.0361    4.8226   -1.0186 C.ar    1  LIG1       -0.0376
      8 C           0.1293    6.6504    1.0824 C.ar    1  LIG1       -0.0356
      9 C          -0.8617    5.9468   -1.0057 C.ar    1  LIG1       -0.0289
     10 C           4.8280    1.7845   -0.0346 C.ar    1  LIG1       -0.0415
     11 C           0.8722    4.6123    0.0188 C.ar    1  LIG1       -0.0090
     12 C          -0.7790    6.8607    0.0449 C.ar    1  LIG1        0.0684
     13 C           3.4534    2.1824   -0.0196 C.ar    1  LIG1        0.0122
     14 C           2.3739    1.3316   -0.0150 C.ar    1  LIG1        0.0063
     15 C           1.7300    3.4465    0.0042 C.ar    1  LIG1        0.0400
     16 C           2.1591   -0.0727   -0.0217 C.ar    1  LIG1       -0.0502
     17 C           0.8963   -0.5441   -0.0122 C.ar    1  LIG1       -0.0776
     18 C          -0.2518    0.3519    0.0046 C.ar    1  LIG1       -0.0635
     19 C          -0.0467    1.6799    0.0107 C.ar    1  LIG1       -0.0242
     20 N           3.0450    3.4938   -0.0077 N.ar    1  LIG1       -0.3470
     21 N           1.2602    2.1577    0.0008 N.ar    1  LIG1       -0.3056
     22 N          -1.6191    8.0051    0.0580 N.pl3   1  LIG1       -0.0631
     23 O          -1.5288    8.8151    1.0122 O.2     1  LIG1       -0.1756
     24 O          -2.4292    8.1758   -0.8850 O.2     1  LIG1       -0.2642
     25 H           8.5509    0.7075   -0.0753 H       1  LIG1        0.1161
     26 H           6.8519   -0.7415    1.0065 H       1  LIG1        0.1189
     27 H           7.8669    2.8460   -1.1297 H       1  LIG1        0.1181
     28 H           4.4799   -0.0640    1.0365 H       1  LIG1        0.1298
     29 H           5.4994    3.5396   -1.1094 H       1  LIG1        0.1219
     30 H           1.6575    5.3763    1.8856 H       1  LIG1        0.1411
     31 H          -0.1114    4.1200   -1.8453 H       1  LIG1        0.1616
     32 H           0.2044    7.3552    1.9069 H       1  LIG1        0.1711
     33 H          -1.5643    6.0999   -1.8212 H       1  LIG1        0.1736
     34 H           3.0038   -0.7527   -0.0347 H       1  LIG1        0.1614
     35 H           0.7019   -1.6111   -0.0175 H       1  LIG1        0.1428
     36 H          -1.2481   -0.0733    0.0112 H       1  LIG1        0.1530
     37 H          -0.8623    2.3927    0.0226 H       1  LIG1        0.2003
@<TRIPOS>BOND
     1     1     2   ar
     2     1     3   ar
     3     2     4   ar
     4     3     5   ar
     5     4    10   ar
     6     5    10   ar
     7     6     8   ar
     8     6    11   ar
     9     7     9   ar
    10     7    11   ar
    11     8    12   ar
    12     9    12   ar
    13    10    13    1
    14    11    15    1
    15    12    22    1
    16    13    14   ar
    17    13    20   ar
    18    14    16   ar
    19    14    21   ar
    20    15    20   ar
    21    15    21   ar
    22    16    17   ar
    23    17    18   ar
    24    18    19   ar
    25    19    21   ar
    26    22    23    1
    27    22    24    2
    28     1    25    1
    29     2    26    1
    30     3    27    1
    31     4    28    1
    32     5    29    1
    33     6    30    1
    34     7    31    1
    35     8    32    1
    36     9    33    1
    37    16    34    1
    38    17    35    1
    39    18    36    1
    40    19    37    1
