@<TRIPOS>MOLECULE
AG-690/33080011
 38 40 0 0 0
SMALL
USER_CHARGES

@<TRIPOS>ATOM
      1 C           7.2752    1.6035   -0.0511 C.ar    1  LIG1       -0.1018
      2 C           6.4831    2.5804   -0.6542 C.ar    1  LIG1       -0.0955
      3 C           6.6783    0.4987    0.5564 C.ar    1  LIG1       -0.0978
      4 C           5.0941    2.4526   -0.6497 C.ar    1  LIG1       -0.0751
      5 C           5.2894    0.3710    0.5609 C.ar    1  LIG1       -0.0788
      6 C           1.0691    5.4846    1.1095 C.ar    1  LIG1       -0.0859
      7 C           0.3431    4.6706   -1.0463 C.ar    1  LIG1       -0.0801
      8 C           0.0443    6.4307    1.0973 C.ar    1  LIG1       -0.0644
      9 C          -0.6817    5.6167   -1.0585 C.ar    1  LIG1       -0.0589
     10 C           4.4972    1.3479   -0.0421 C.ar    1  LIG1       -0.0387
     11 C           1.2185    4.6044    0.0376 C.ar    1  LIG1       -0.0626
     12 C          -0.8311    6.4969    0.0133 C.ar    1  LIG1       -0.0664
     13 C           3.0410    1.2141   -0.0374 C.2     1  LIG1        0.0352
     14 C           2.0920    2.3132   -0.0362 C.2     1  LIG1        0.0713
     15 C           0.7710    1.6854   -0.0706 C.2     1  LIG1        0.2482
     16 C           2.2734    3.6306    0.0503 C.2     1  LIG1       -0.0437
     17 C          -1.7014    8.7241    0.6782 C.3     1  LIG1       -0.0334
     18 C          -3.1065    7.1841   -0.7011 C.3     1  LIG1       -0.0332
     19 N           2.4190    0.0710   -0.0211 N.2     1  LIG1       -0.2150
     20 N          -1.8673    7.4535    0.0009 N.pl3   1  LIG1       -0.4193
     21 O          -0.3174    2.2268   -0.1041 O.2     1  LIG1       -0.3999
     22 O           1.0083    0.3324   -0.0445 O.3     1  LIG1       -0.1853
     23 H           8.3567    1.7030   -0.0545 H       1  LIG1        0.1223
     24 H           6.9479    3.4406   -1.1270 H       1  LIG1        0.1228
     25 H           7.2952   -0.2620    1.0257 H       1  LIG1        0.1224
     26 H           4.4862    3.2198   -1.1226 H       1  LIG1        0.1342
     27 H           4.8352   -0.4940    1.0374 H       1  LIG1        0.1272
     28 H           1.7439    5.4456    1.9613 H       1  LIG1        0.1402
     29 H           0.4469    3.9908   -1.8887 H       1  LIG1        0.1427
     30 H          -0.0630    7.1121    1.9375 H       1  LIG1        0.1163
     31 H          -1.3583    5.6588   -1.9082 H       1  LIG1        0.1171
     32 H           3.2990    3.9989    0.1083 H       1  LIG1        0.1937
     33 H          -2.6020    9.3325    0.5615 H       1  LIG1        0.1005
     34 H          -0.8518    9.2688    0.2570 H       1  LIG1        0.0863
     35 H          -1.5208    8.5634    1.7444 H       1  LIG1        0.0840
     36 H          -3.7870    8.0338   -0.6016 H       1  LIG1        0.0823
     37 H          -3.5902    6.2954   -0.2866 H       1  LIG1        0.0943
     38 H          -2.9100    7.0131   -1.7629 H       1  LIG1        0.0950
@<TRIPOS>BOND
     1     1     2   ar
     2     1     3   ar
     3     2     4   ar
     4     3     5   ar
     5     4    10   ar
     6     5    10   ar
     7     6     8   ar
     8     6    11   ar
     9     7     9   ar
    10     7    11   ar
    11     8    12   ar
    12     9    12   ar
    13    10    13    1
    14    11    16    1
    15    12    20    1
    16    13    14    1
    17    13    19    2
    18    14    15    1
    19    14    16    2
    20    15    21    2
    21    15    22    1
    22    17    20    1
    23    18    20    1
    24    19    22    1
    25     1    23    1
    26     2    24    1
    27     3    25    1
    28     4    26    1
    29     5    27    1
    30     6    28    1
    31     7    29    1
    32     8    30    1
    33     9    31    1
    34    16    32    1
    35    17    33    1
    36    17    34    1
    37    17    35    1
    38    18    36    1
    39    18    37    1
    40    18    38    1
