@<TRIPOS>MOLECULE
AG-205/32388034
 42 44 0 0 0
SMALL
USER_CHARGES

@<TRIPOS>ATOM
      1 C           1.3638    5.3242    0.6184 C.ar    1  LIG1       -0.0800
      2 C           5.3312    0.6769    0.9999 C.ar    1  LIG1       -0.0663
      3 C           0.7599    6.5814    0.6327 C.ar    1  LIG1       -0.0551
      4 C           6.7140    0.4951    0.9876 C.ar    1  LIG1       -0.0520
      5 C          -0.5363    4.4250   -0.5724 C.ar    1  LIG1       -0.0470
      6 C           5.4715    1.8862   -1.0869 C.ar    1  LIG1       -0.0389
      7 C           2.7279    2.8333   -0.0112 C.ar    1  LIG1       -0.0434
      8 C           0.5601    1.7918    0.0061 C.ar    1  LIG1       -0.0563
      9 C           0.7158    4.2459    0.0158 C.ar    1  LIG1       -0.0625
     10 C           4.7098    1.3725   -0.0374 C.ar    1  LIG1       -0.0266
     11 C           1.3417    2.9417    0.0035 C.ar    1  LIG1       -0.0652
     12 C          -0.4921    6.7605    0.0446 C.ar    1  LIG1        0.0195
     13 C           7.4756    1.0088   -0.0620 C.ar    1  LIG1        0.0190
     14 C          -1.1402    5.6823   -0.5581 C.ar    1  LIG1        0.0362
     15 C           6.8544    1.7045   -1.0992 C.ar    1  LIG1        0.0358
     16 C           3.2789    1.5620   -0.0227 C.ar    1  LIG1       -0.0171
     17 C           1.2081    0.5672   -0.0063 C.ar    1  LIG1       -0.0511
     18 C           0.4010   -0.6882   -0.0022 C.3     1  LIG1       -0.0069
     19 C          -0.7691    8.8702   -1.0175 C.3     1  LIG1        0.0283
     20 C           9.3180   -0.3614   -0.6813 C.3     1  LIG1        0.0281
     21 N           2.5522    0.4221   -0.0205 N.ar    1  LIG1       -0.3894
     22 O          -1.0589    7.9999    0.0741 O.3     1  LIG1       -0.4072
     23 O           8.8252    0.8169   -0.0476 O.3     1  LIG1       -0.4074
     24 CL         -2.6906    5.8755   -1.2896 Cl      1  LIG1       -0.1263
     25 CL          7.7731    2.3533   -2.4072 Cl      1  LIG1       -0.1287
     26 H           2.3396    5.1999    1.0818 H       1  LIG1        0.1418
     27 H           4.7509    0.2713    1.8252 H       1  LIG1        0.1544
     28 H           1.2708    7.4171    1.1033 H       1  LIG1        0.1258
     29 H           7.1914   -0.0484    1.7985 H       1  LIG1        0.1247
     30 H          -1.0404    3.5833   -1.0438 H       1  LIG1        0.1531
     31 H           4.9855    2.4275   -1.8966 H       1  LIG1        0.1536
     32 H           3.3595    3.7175   -0.0127 H       1  LIG1        0.1334
     33 H          -0.5246    1.8467    0.0176 H       1  LIG1        0.1300
     34 H           0.1832   -1.0043   -1.0293 H       1  LIG1        0.0764
     35 H           0.9332   -1.5012    0.5076 H       1  LIG1        0.0755
     36 H          -0.5493   -0.5478    0.5285 H       1  LIG1        0.0735
     37 H          -1.2822    9.8238   -0.8703 H       1  LIG1        0.0920
     38 H          -1.0986    8.4074   -1.9511 H       1  LIG1        0.0920
     39 H           0.3091    9.0418   -1.0588 H       1  LIG1        0.1256
     40 H          10.4073   -0.3922   -0.5983 H       1  LIG1        0.0920
     41 H           9.0221   -0.3613   -1.7334 H       1  LIG1        0.0920
     42 H           8.8922   -1.2366   -0.1851 H       1  LIG1        0.1250
@<TRIPOS>BOND
     1     1     3   ar
     2     1     9   ar
     3     2     4   ar
     4     2    10   ar
     5     3    12   ar
     6     4    13   ar
     7     5     9   ar
     8     5    14   ar
     9     6    10   ar
    10     6    15   ar
    11     7    11   ar
    12     7    16   ar
    13     8    11   ar
    14     8    17   ar
    15     9    11    1
    16    10    16    1
    17    12    14   ar
    18    12    22    1
    19    13    15   ar
    20    13    23    1
    21    14    24    1
    22    15    25    1
    23    16    21   ar
    24    17    18    1
    25    17    21   ar
    26    19    22    1
    27    20    23    1
    28     1    26    1
    29     2    27    1
    30     3    28    1
    31     4    29    1
    32     5    30    1
    33     6    31    1
    34     7    32    1
    35     8    33    1
    36    18    34    1
    37    18    35    1
    38    18    36    1
    39    19    37    1
    40    19    38    1
    41    19    39    1
    42    20    40    1
    43    20    41    1
    44    20    42    1
