@<TRIPOS>MOLECULE
AN-919/15183002
 39 41 0 0 0
SMALL
USER_CHARGES

@<TRIPOS>ATOM
      1 C          -0.9618    1.8690    0.0199 C.1     1  LIG1        0.0739
      2 C           7.3963    1.0371   -0.0638 C.ar    1  LIG1       -0.1113
      3 C           6.7687    1.7283   -1.1000 C.ar    1  LIG1       -0.1063
      4 C           6.6400    0.5180    0.9870 C.ar    1  LIG1       -0.1015
      5 C           5.3845    1.9007   -1.0855 C.ar    1  LIG1       -0.0810
      6 C           5.2558    0.6904    1.0015 C.ar    1  LIG1       -0.0733
      7 C          -0.1982    4.6418   -1.0181 C.ar    1  LIG1       -0.0846
      8 C          -0.7704    5.9138   -1.0061 C.ar    1  LIG1       -0.0688
      9 C           0.9227    5.1263    1.0667 C.ar    1  LIG1       -0.0732
     10 C           2.6309    2.8270   -0.0078 C.ar    1  LIG1       -0.0415
     11 C           0.4718    1.7675    0.0062 C.ar    1  LIG1        0.1078
     12 C           4.6281    1.3817   -0.0347 C.ar    1  LIG1       -0.0338
     13 C           0.6483    4.2480    0.0183 C.ar    1  LIG1       -0.0581
     14 C           1.2438    2.9239    0.0055 C.ar    1  LIG1       -0.0212
     15 C           0.3505    6.3984    1.0786 C.ar    1  LIG1       -0.0671
     16 C          -0.4961    6.7921    0.0422 C.ar    1  LIG1       -0.0150
     17 C           3.1925    1.5605   -0.0200 C.ar    1  LIG1       -0.0116
     18 C           1.1300    0.5483   -0.0068 C.ar    1  LIG1       -0.0629
     19 C           0.6551    7.3260    2.2084 C.3     1  LIG1       -0.0358
     20 C          -1.9148    8.3500   -1.0605 C.3     1  LIG1        0.0221
     21 N          -2.1194    1.9509    0.0309 N.1     1  LIG1       -0.3903
     22 N           2.4752    0.4145   -0.0198 N.ar    1  LIG1       -0.3681
     23 O          -1.0625    8.0310    0.0377 O.3     1  LIG1       -0.4187
     24 S           0.2327   -1.0359   -0.0076 S.3     1  LIG1       -0.5437
     25 H           8.4739    0.9016   -0.0763 H       1  LIG1        0.1099
     26 H           7.3572    2.1311   -1.9191 H       1  LIG1        0.1107
     27 H           7.1279   -0.0215    1.7934 H       1  LIG1        0.1129
     28 H           4.9099    2.4417   -1.9007 H       1  LIG1        0.1257
     29 H           4.6793    0.2796    1.8270 H       1  LIG1        0.1419
     30 H          -0.4219    3.9689   -1.8425 H       1  LIG1        0.1336
     31 H          -1.4287    6.2149   -1.8166 H       1  LIG1        0.1114
     32 H           1.5824    4.8240    1.8776 H       1  LIG1        0.1380
     33 H           3.2568    3.7155   -0.0088 H       1  LIG1        0.1188
     34 H           1.5398    7.9302    1.9762 H       1  LIG1        0.0557
     35 H          -0.1871    8.0010    2.4054 H       1  LIG1        0.0551
     36 H           0.8439    6.7721    3.1365 H       1  LIG1        0.0569
     37 H          -2.2998    9.3656   -0.9409 H       1  LIG1        0.0875
     38 H          -2.7426    7.6374   -1.0995 H       1  LIG1        0.0875
     39 H          -1.3391    8.2877   -1.9871 H       1  LIG1        0.1184
@<TRIPOS>BOND
     1     1    11    1
     2     1    21    3
     3     2     3   ar
     4     2     4   ar
     5     3     5   ar
     6     4     6   ar
     7     5    12   ar
     8     6    12   ar
     9     7     8   ar
    10     7    13   ar
    11     8    16   ar
    12     9    13   ar
    13     9    15   ar
    14    10    14   ar
    15    10    17   ar
    16    11    14   ar
    17    11    18   ar
    18    12    17    1
    19    13    14    1
    20    15    16   ar
    21    15    19    1
    22    16    23    1
    23    17    22   ar
    24    18    22   ar
    25    18    24    1
    26    20    23    1
    27     2    25    1
    28     3    26    1
    29     4    27    1
    30     5    28    1
    31     6    29    1
    32     7    30    1
    33     8    31    1
    34     9    32    1
    35    10    33    1
    36    19    34    1
    37    19    35    1
    38    19    36    1
    39    20    37    1
    40    20    38    1
    41    20    39    1
