@<TRIPOS>MOLECULE
AQ-776/42801378
 35 38 0 0 0
SMALL
USER_CHARGES

@<TRIPOS>ATOM
      1 C           7.5421    0.7919   -0.0658 C.ar    1  LIG1       -0.0856
      2 C           7.0835    1.6043   -1.1028 C.ar    1  LIG1       -0.1084
      3 C           6.6899    0.4561    0.9861 C.ar    1  LIG1       -0.1090
      4 C          -1.0025    6.7731    0.0471 C.ar    1  LIG1       -0.0975
      5 C           0.3655    7.0604    0.0371 C.ar    1  LIG1       -0.0586
      6 C           5.7728    2.0810   -1.0877 C.ar    1  LIG1       -0.0814
      7 C           5.3791    0.9328    1.0011 C.ar    1  LIG1       -0.1088
      8 C          -1.4502    5.4479    0.0432 C.ar    1  LIG1       -0.0622
      9 C           1.3020    6.0287    0.0229 C.ar    1  LIG1       -0.1201
     10 C           3.1624    3.5666   -0.0085 C.ar    1  LIG1        0.0014
     11 C           4.9205    1.7453   -0.0358 C.ar    1  LIG1       -0.0634
     12 C          -0.5321    4.3944    0.0292 C.ar    1  LIG1       -0.0809
     13 C           0.8400    4.7166    0.0190 C.ar    1  LIG1        0.1213
     14 C           3.5329    2.2491   -0.0198 C.ar    1  LIG1        0.1269
     15 C           1.3223    2.3288    0.0006 C.ar    1  LIG1        0.3252
     16 C          -1.0052    2.9981    0.0250 C.ar    1  LIG1        0.0112
     17 C          -0.1233    1.9890    0.0112 C.ar    1  LIG1       -0.1496
     18 C           2.3131    0.0584   -0.0223 C.3     1  LIG1        0.0427
     19 N           1.7796    3.5973    0.0041 N.ar    1  LIG1       -0.3343
     20 N           2.3781    1.5088   -0.0133 N.ar    1  LIG1       -0.3897
     21 H           8.5620    0.4190   -0.0786 H       1  LIG1        0.1379
     22 H           7.7472    1.8645   -1.9224 H       1  LIG1        0.1402
     23 H           7.0470   -0.1774    1.7927 H       1  LIG1        0.1385
     24 H          -1.7236    7.5859    0.0579 H       1  LIG1        0.1514
     25 H           0.6989    8.0944    0.0399 H       1  LIG1        0.1530
     26 H           5.4293    2.7133   -1.9029 H       1  LIG1        0.1333
     27 H           4.7270    0.6620    1.8281 H       1  LIG1        0.1309
     28 H          -2.5204    5.2555    0.0506 H       1  LIG1        0.1569
     29 H           2.3576    6.2737    0.0137 H       1  LIG1        0.1472
     30 H           3.7053    4.4924   -0.0091 H       1  LIG1        0.2236
     31 H          -2.0720    2.8043    0.0334 H       1  LIG1        0.1778
     32 H          -0.4388    0.9532    0.0077 H       1  LIG1        0.1765
     33 H           2.3075   -0.3021    1.0100 H       1  LIG1        0.1142
     34 H           1.4061   -0.2799   -0.5310 H       1  LIG1        0.1170
     35 H           3.1817   -0.3462   -0.5496 H       1  LIG1        0.1223
@<TRIPOS>BOND
     1     1     2   ar
     2     1     3   ar
     3     2     6   ar
     4     3     7   ar
     5     4     5   ar
     6     4     8   ar
     7     5     9   ar
     8     6    11   ar
     9     7    11   ar
    10     8    12   ar
    11     9    13   ar
    12    10    14   ar
    13    10    19   ar
    14    11    14    1
    15    12    13   ar
    16    12    16   ar
    17    13    19   ar
    18    14    20   ar
    19    15    17   ar
    20    15    19   ar
    21    15    20   ar
    22    16    17   ar
    23    18    20    1
    24     1    21    1
    25     2    22    1
    26     3    23    1
    27     4    24    1
    28     5    25    1
    29     6    26    1
    30     7    27    1
    31     8    28    1
    32     9    29    1
    33    10    30    1
    34    16    31    1
    35    17    32    1
    36    18    33    1
    37    18    34    1
    38    18    35    1
