@<TRIPOS>MOLECULE
AE-641/14883017
 38 40 0 0 0
SMALL
USER_CHARGES

@<TRIPOS>ATOM
      1 C           7.4847    1.1446   -0.0636 C.ar    1  LIG1       -0.1053
      2 C          -0.6092    6.8792    0.0440 C.ar    1  LIG1       -0.0959
      3 C           6.6729    0.7202    0.9881 C.ar    1  LIG1       -0.0998
      4 C           6.9427    1.9042   -1.1004 C.ar    1  LIG1       -0.0992
      5 C          -0.7468    5.9707   -1.0054 C.ar    1  LIG1       -0.0874
      6 C           0.2873    6.6175    1.0801 C.ar    1  LIG1       -0.0848
      7 C           5.3189    1.0552    1.0030 C.ar    1  LIG1       -0.0780
      8 C           5.5888    2.2391   -1.0856 C.ar    1  LIG1       -0.0772
      9 C           0.0120    4.8003   -1.0186 C.ar    1  LIG1       -0.0494
     10 C           1.0460    5.4471    1.0669 C.ar    1  LIG1       -0.0468
     11 C           4.7768    1.8147   -0.0338 C.ar    1  LIG1       -0.0376
     12 C           2.2884    1.2740   -0.0134 C.ar    1  LIG1       -0.0184
     13 C           0.9084    4.5385    0.0176 C.ar    1  LIG1        0.0098
     14 C           3.3828    2.1595   -0.0189 C.ar    1  LIG1        0.0220
     15 C           1.1851    2.0919    0.0015 C.ar    1  LIG1        0.1165
     16 C          -0.1978    1.7241    0.0125 C.2     1  LIG1        0.2147
     17 C           2.3131   -0.2007   -0.0212 C.3     1  LIG1       -0.0221
     18 C          -1.7648    0.0418    0.7179 C.3     1  LIG1        0.0394
     19 N           3.0088    3.4416   -0.0085 N.ar    1  LIG1       -0.2917
     20 N           1.6669    3.3679    0.0036 N.ar    1  LIG1       -0.2524
     21 O          -1.1291    2.3955   -0.4857 O.2     1  LIG1       -0.4280
     22 O          -0.4173    0.5198    0.6430 O.3     1  LIG1       -0.3438
     23 H           8.5392    0.8849   -0.0748 H       1  LIG1        0.1174
     24 H          -1.1983    7.7914    0.0538 H       1  LIG1        0.1269
     25 H           7.0948    0.1300    1.7962 H       1  LIG1        0.1193
     26 H           7.5753    2.2356   -1.9186 H       1  LIG1        0.1183
     27 H          -1.4437    6.1750   -1.8129 H       1  LIG1        0.1289
     28 H           0.3949    7.3262    1.8962 H       1  LIG1        0.1298
     29 H           4.6989    0.7167    1.8300 H       1  LIG1        0.1283
     30 H           5.1815    2.8318   -1.9014 H       1  LIG1        0.1284
     31 H          -0.1044    4.1009   -1.8429 H       1  LIG1        0.1411
     32 H           1.7416    5.2559    1.8805 H       1  LIG1        0.1412
     33 H           2.3292   -0.6043    1.0049 H       1  LIG1        0.0684
     34 H           1.4342   -0.6278   -0.5346 H       1  LIG1        0.0683
     35 H           3.1966   -0.5980   -0.5506 H       1  LIG1        0.0751
     36 H          -1.7835   -0.9170    1.2416 H       1  LIG1        0.0988
     37 H          -2.1678   -0.0741   -0.2914 H       1  LIG1        0.1267
     38 H          -2.3690    0.7669    1.2682 H       1  LIG1        0.0985
@<TRIPOS>BOND
     1     1     3   ar
     2     1     4   ar
     3     2     5   ar
     4     2     6   ar
     5     3     7   ar
     6     4     8   ar
     7     5     9   ar
     8     6    10   ar
     9     7    11   ar
    10     8    11   ar
    11     9    13   ar
    12    10    13   ar
    13    11    14    1
    14    12    14   ar
    15    12    15   ar
    16    12    17    1
    17    13    20    1
    18    14    19   ar
    19    15    16    1
    20    15    20   ar
    21    16    21    2
    22    16    22    1
    23    18    22    1
    24    19    20   ar
    25     1    23    1
    26     2    24    1
    27     3    25    1
    28     4    26    1
    29     5    27    1
    30     6    28    1
    31     7    29    1
    32     8    30    1
    33     9    31    1
    34    10    32    1
    35    17    33    1
    36    17    34    1
    37    17    35    1
    38    18    36    1
    39    18    37    1
    40    18    38    1
