@<TRIPOS>MOLECULE
AN-989/42063253
 36 39 0 0 0
SMALL
USER_CHARGES

@<TRIPOS>ATOM
      1 C           5.4183    2.3315   -0.6419 C.ar    1  LIG1       -0.0682
      2 C           5.2636    0.2367    0.5518 C.ar    1  LIG1       -0.0742
      3 C           0.8825    5.1374    1.0707 C.ar    1  LIG1       -0.0612
      4 C          -0.2067    4.6636   -1.0332 C.ar    1  LIG1       -0.0648
      5 C           6.8089    2.2241   -0.6502 C.ar    1  LIG1       -0.0915
      6 C           6.6542    0.1293    0.5436 C.ar    1  LIG1       -0.0948
      7 C           0.2872    6.3986    1.0948 C.ar    1  LIG1       -0.0380
      8 C          -0.8020    5.9248   -1.0090 C.ar    1  LIG1       -0.0383
      9 C          -0.9915    0.2954   -0.0275 C.ar    1  LIG1        0.0630
     10 C           0.6356    4.2699    0.0066 C.ar    1  LIG1       -0.0202
     11 C           4.6455    1.3378   -0.0409 C.ar    1  LIG1       -0.0192
     12 C           7.4269    1.1230   -0.0574 C.ar    1  LIG1       -0.1123
     13 C          -0.5551    6.7923    0.0550 C.ar    1  LIG1        0.0699
     14 C           1.0974    0.4997   -0.0189 C.ar    1  LIG1        0.1209
     15 C           2.6053    2.8416   -0.0192 C.ar    1  LIG1        0.0181
     16 C           1.2645    2.9369   -0.0192 C.ar    1  LIG1        0.0365
     17 C           3.1629    1.4510   -0.0319 C.ar    1  LIG1        0.0277
     18 C           8.9140    1.0081   -0.0675 C.3     1  LIG1       -0.0398
     19 N           0.1584   -0.4249   -0.0186 N.ar    1  LIG1       -0.3084
     20 N          -0.8482    1.6171   -0.0329 N.ar    1  LIG1       -0.2993
     21 N           2.4521    0.3602   -0.0199 N.ar    1  LIG1       -0.2935
     22 N           0.5023    1.7636   -0.0220 N.ar    1  LIG1       -0.2242
     23 F          -1.1282    8.0027    0.0789 F       1  LIG1       -0.2601
     24 H           4.9465    3.1934   -1.1067 H       1  LIG1        0.1470
     25 H           4.6716   -0.5435    1.0232 H       1  LIG1        0.1338
     26 H           1.5365    4.8446    1.8886 H       1  LIG1        0.1666
     27 H          -0.4090    3.9987   -1.8695 H       1  LIG1        0.1495
     28 H           7.4030    3.0027   -1.1210 H       1  LIG1        0.1233
     29 H           7.1275   -0.7323    1.0074 H       1  LIG1        0.1230
     30 H           0.4790    7.0742    1.9231 H       1  LIG1        0.1376
     31 H          -1.4582    6.2314   -1.8183 H       1  LIG1        0.1392
     32 H          -1.9720   -0.1568   -0.0309 H       1  LIG1        0.3126
     33 H           3.2740    3.6942   -0.0173 H       1  LIG1        0.1669
     34 H           9.3398    1.4852    0.8236 H       1  LIG1        0.0603
     35 H           9.2322   -0.0422   -0.0856 H       1  LIG1        0.0561
     36 H           9.3443    1.4858   -0.9574 H       1  LIG1        0.0563
@<TRIPOS>BOND
     1     1     5   ar
     2     1    11   ar
     3     2     6   ar
     4     2    11   ar
     5     3     7   ar
     6     3    10   ar
     7     4     8   ar
     8     4    10   ar
     9     5    12   ar
    10     6    12   ar
    11     7    13   ar
    12     8    13   ar
    13     9    19   ar
    14     9    20   ar
    15    10    16    1
    16    11    17    1
    17    12    18    1
    18    13    23    1
    19    14    19   ar
    20    14    21   ar
    21    14    22   ar
    22    15    16   ar
    23    15    17   ar
    24    16    22   ar
    25    17    21   ar
    26    20    22   ar
    27     1    24    1
    28     2    25    1
    29     3    26    1
    30     4    27    1
    31     5    28    1
    32     6    29    1
    33     7    30    1
    34     8    31    1
    35     9    32    1
    36    15    33    1
    37    18    34    1
    38    18    35    1
    39    18    36    1
