@<TRIPOS>MOLECULE
AG-219/33329008
 38 40 0 0 0
SMALL
USER_CHARGES

@<TRIPOS>ATOM
      1 C          -0.6064    6.6515    0.0440 C.ar    1  LIG1       -0.1014
      2 C           0.2635    6.3106    1.0797 C.ar    1  LIG1       -0.0978
      3 C          -0.8247    5.7591   -1.0057 C.ar    1  LIG1       -0.0947
      4 C           0.9149    5.0773    1.0658 C.ar    1  LIG1       -0.0783
      5 C          -0.1732    4.5258   -1.0195 C.ar    1  LIG1       -0.0726
      6 C           5.3064    0.6193    1.0007 C.ar    1  LIG1       -0.0744
      7 C           6.6847    0.4049    0.9869 C.ar    1  LIG1       -0.0514
      8 C           5.4728    1.8228   -1.0877 C.ar    1  LIG1       -0.0274
      9 C           2.7501    2.8262   -0.0110 C.ar    1  LIG1       -0.0006
     10 C           0.6966    4.1849    0.0162 C.ar    1  LIG1       -0.0296
     11 C           4.7005    1.3282   -0.0368 C.ar    1  LIG1       -0.0266
     12 C           7.4569    0.8995   -0.0640 C.ar    1  LIG1        0.0380
     13 C           6.8510    1.6084   -1.1014 C.ar    1  LIG1        0.0437
     14 C           1.3724    2.9057    0.0024 C.ar    1  LIG1        0.0040
     15 C           3.2743    1.5497   -0.0220 C.ar    1  LIG1        0.0038
     16 C           1.1913    0.6398   -0.0069 C.ar    1  LIG1        0.1422
     17 C           9.3426   -0.0496    1.0309 C.3     1  LIG1        0.0272
     18 C           7.7725    1.2438   -3.2633 C.3     1  LIG1        0.0254
     19 N           0.5594    1.8290    0.0048 N.ar    1  LIG1       -0.3276
     20 N           2.5215    0.4301   -0.0202 N.ar    1  LIG1       -0.3275
     21 O           8.8022    0.6840   -0.0662 O.3     1  LIG1       -0.4046
     22 O           7.5942    2.0961   -2.1336 O.3     1  LIG1       -0.4077
     23 CL          0.1994   -0.7514   -0.0044 Cl      1  LIG1        0.0265
     24 H          -1.1148    7.6111    0.0558 H       1  LIG1        0.1240
     25 H           0.4322    7.0046    1.8978 H       1  LIG1        0.1213
     26 H          -1.5029    6.0234   -1.8118 H       1  LIG1        0.1215
     27 H           1.5898    4.8262    1.8808 H       1  LIG1        0.1297
     28 H          -0.3537    3.8402   -1.8440 H       1  LIG1        0.1423
     29 H           4.7182    0.2269    1.8267 H       1  LIG1        0.1350
     30 H           7.1504   -0.1479    1.7982 H       1  LIG1        0.1298
     31 H           5.0089    2.3764   -1.9015 H       1  LIG1        0.1502
     32 H           3.3795    3.7089   -0.0126 H       1  LIG1        0.1505
     33 H          10.4235   -0.1501    0.9060 H       1  LIG1        0.1236
     34 H           8.8767   -1.0373    1.0748 H       1  LIG1        0.0904
     35 H           9.1339    0.4908    1.9573 H       1  LIG1        0.0904
     36 H           8.3833    1.7536   -4.0124 H       1  LIG1        0.0896
     37 H           6.7973    0.9882   -3.6854 H       1  LIG1        0.1232
     38 H           8.2796    0.3306   -2.9431 H       1  LIG1        0.0901
@<TRIPOS>BOND
     1     1     2   ar
     2     1     3   ar
     3     2     4   ar
     4     3     5   ar
     5     4    10   ar
     6     5    10   ar
     7     6     7   ar
     8     6    11   ar
     9     7    12   ar
    10     8    11   ar
    11     8    13   ar
    12     9    14   ar
    13     9    15   ar
    14    10    14    1
    15    11    15    1
    16    12    13   ar
    17    12    21    1
    18    13    22    1
    19    14    19   ar
    20    15    20   ar
    21    16    19   ar
    22    16    20   ar
    23    16    23    1
    24    17    21    1
    25    18    22    1
    26     1    24    1
    27     2    25    1
    28     3    26    1
    29     4    27    1
    30     5    28    1
    31     6    29    1
    32     7    30    1
    33     8    31    1
    34     9    32    1
    35    17    33    1
    36    17    34    1
    37    17    35    1
    38    18    36    1
    39    18    37    1
    40    18    38    1
