@<TRIPOS>MOLECULE
AG-205/08567008
 43 45 0 0 0
SMALL
USER_CHARGES

@<TRIPOS>ATOM
      1 C          -0.9598    1.8566    0.0167 C.1     1  LIG1        0.0754
      2 C           7.3939    1.0357   -0.0644 C.ar    1  LIG1       -0.1033
      3 C           6.7665    1.7273   -1.1005 C.ar    1  LIG1       -0.0992
      4 C           6.6374    0.5176    0.9868 C.ar    1  LIG1       -0.0970
      5 C           5.3825    1.9010   -1.0853 C.ar    1  LIG1       -0.0791
      6 C           5.2535    0.6914    1.0021 C.ar    1  LIG1       -0.0750
      7 C           0.9236    5.1239    1.0672 C.ar    1  LIG1       -0.0858
      8 C          -0.1948    4.6391   -1.0188 C.ar    1  LIG1       -0.0750
      9 C           0.3498    6.3953    1.0793 C.ar    1  LIG1       -0.0647
     10 C          -0.7686    5.9105   -1.0066 C.ar    1  LIG1       -0.0519
     11 C           2.6331    2.8297   -0.0067 C.ar    1  LIG1       -0.0197
     12 C           0.4732    1.7717    0.0049 C.ar    1  LIG1        0.1145
     13 C           0.6514    4.2459    0.0181 C.ar    1  LIG1       -0.0576
     14 C           4.6260    1.3830   -0.0340 C.ar    1  LIG1       -0.0322
     15 C           1.2462    2.9275    0.0054 C.ar    1  LIG1       -0.0112
     16 C          -0.4962    6.7885    0.0425 C.ar    1  LIG1       -0.0109
     17 C           3.1938    1.5628   -0.0189 C.ar    1  LIG1       -0.0038
     18 C           1.1307    0.5521   -0.0080 C.ar    1  LIG1        0.0546
     19 C           2.4056   -2.6756    0.0379 C.3     1  LIG1       -0.0501
     20 C          -1.9117    8.3660   -1.0362 C.3     1  LIG1        0.0249
     21 C           1.4294   -2.0162   -0.9178 C.3     1  LIG1       -0.0008
     22 N          -2.1182    1.9252    0.0262 N.1     1  LIG1       -0.3613
     23 N           2.4758    0.4172   -0.0198 N.ar    1  LIG1       -0.3615
     24 O          -1.0565    8.0287    0.0548 O.3     1  LIG1       -0.4157
     25 S           0.2415   -1.0041   -0.0120 S.3     1  LIG1       -0.1285
     26 H           8.4713    0.8992   -0.0773 H       1  LIG1        0.1212
     27 H           7.3550    2.1293   -1.9199 H       1  LIG1        0.1198
     28 H           7.1252   -0.0221    1.7932 H       1  LIG1        0.1188
     29 H           4.9081    2.4424   -1.9005 H       1  LIG1        0.1299
     30 H           4.6769    0.2814    1.8278 H       1  LIG1        0.1378
     31 H           1.5810    4.8320    1.8826 H       1  LIG1        0.1320
     32 H          -0.4169    3.9663   -1.8435 H       1  LIG1        0.1439
     33 H           0.5655    7.0748    1.8994 H       1  LIG1        0.1164
     34 H          -1.4271    6.2114   -1.8169 H       1  LIG1        0.1340
     35 H           3.2597    3.7173   -0.0069 H       1  LIG1        0.1495
     36 H           2.9632   -1.9332    0.6187 H       1  LIG1        0.0522
     37 H           1.8945   -3.3499    0.7334 H       1  LIG1        0.0429
     38 H           3.1335   -3.2700   -0.5244 H       1  LIG1        0.0428
     39 H          -2.2911    9.3821   -0.9022 H       1  LIG1        0.0903
     40 H          -2.7432    7.6582   -1.0809 H       1  LIG1        0.0901
     41 H          -1.3400    8.3127   -1.9658 H       1  LIG1        0.1233
     42 H           0.8842   -2.7755   -1.4868 H       1  LIG1        0.0849
     43 H           1.9658   -1.3795   -1.6278 H       1  LIG1        0.0850
@<TRIPOS>BOND
     1     1    12    1
     2     1    22    3
     3     2     3   ar
     4     2     4   ar
     5     3     5   ar
     6     4     6   ar
     7     5    14   ar
     8     6    14   ar
     9     7     9   ar
    10     7    13   ar
    11     8    10   ar
    12     8    13   ar
    13     9    16   ar
    14    10    16   ar
    15    11    15   ar
    16    11    17   ar
    17    12    15   ar
    18    12    18   ar
    19    13    15    1
    20    14    17    1
    21    16    24    1
    22    17    23   ar
    23    18    23   ar
    24    18    25    1
    25    19    21    1
    26    20    24    1
    27    21    25    1
    28     2    26    1
    29     3    27    1
    30     4    28    1
    31     5    29    1
    32     6    30    1
    33     7    31    1
    34     8    32    1
    35     9    33    1
    36    10    34    1
    37    11    35    1
    38    19    36    1
    39    19    37    1
    40    19    38    1
    41    20    39    1
    42    20    40    1
    43    20    41    1
    44    21    42    1
    45    21    43    1
