@<TRIPOS>MOLECULE
AG-690/40749470
 46 48 0 0 0
SMALL
USER_CHARGES

@<TRIPOS>ATOM
      1 C          -0.9012    1.8112    0.0164 C.1     1  LIG1        0.0751
      2 C           5.4409    1.9055   -1.0860 C.ar    1  LIG1       -0.0767
      3 C           5.3206    0.6948    1.0014 C.ar    1  LIG1       -0.0631
      4 C           0.9563    5.0936    1.0670 C.ar    1  LIG1       -0.0756
      5 C          -0.1580    4.6007   -1.0192 C.ar    1  LIG1       -0.0743
      6 C           6.8261    1.7425   -1.1008 C.ar    1  LIG1       -0.0646
      7 C           6.7059    0.5318    0.9866 C.ar    1  LIG1       -0.0498
      8 C           0.3732    6.3606    1.0791 C.ar    1  LIG1       -0.0663
      9 C          -0.7412    5.8677   -1.0071 C.ar    1  LIG1       -0.0662
     10 C           2.6838    2.8126   -0.0072 C.ar    1  LIG1       -0.0198
     11 C           0.5324    1.7376    0.0043 C.ar    1  LIG1        0.1150
     12 C           0.6908    4.2136    0.0177 C.ar    1  LIG1       -0.0529
     13 C           4.6882    1.3817   -0.0349 C.ar    1  LIG1       -0.0292
     14 C           1.2962    2.8995    0.0049 C.ar    1  LIG1       -0.0075
     15 C           7.4585    1.0558   -0.0645 C.ar    1  LIG1       -0.0116
     16 C          -0.4757    6.7477    0.0421 C.ar    1  LIG1       -0.0113
     17 C           3.2545    1.5502   -0.0195 C.ar    1  LIG1       -0.0048
     18 C           1.1995    0.5232   -0.0086 C.ar    1  LIG1        0.0574
     19 C           1.3052   -3.5338    0.4859 C.3     1  LIG1       -0.0520
     20 C           2.3005   -2.2558   -1.4420 C.3     1  LIG1       -0.0503
     21 C           9.3921    0.1838    1.0113 C.3     1  LIG1        0.0250
     22 C           1.7329   -2.1653   -0.0305 C.3     1  LIG1       -0.0099
     23 N          -2.0602    1.8707    0.0260 N.1     1  LIG1       -0.3600
     24 N           2.5455    0.3991   -0.0206 N.ar    1  LIG1       -0.3590
     25 O           8.8100    0.8964   -0.0794 O.3     1  LIG1       -0.4155
     26 S           0.3225   -1.0399   -0.0127 S.3     1  LIG1       -0.1257
     27 CL         -1.1937    8.3118    0.0570 Cl      1  LIG1       -0.1376
     28 H           4.9622    2.4432   -1.9009 H       1  LIG1        0.1389
     29 H           4.7478    0.2806    1.8276 H       1  LIG1        0.1532
     30 H           1.6160    4.8065    1.8824 H       1  LIG1        0.1352
     31 H          -0.3741    3.9263   -1.8446 H       1  LIG1        0.1415
     32 H           7.4070    2.1526   -1.9223 H       1  LIG1        0.1153
     33 H           7.1931   -0.0042    1.7964 H       1  LIG1        0.1312
     34 H           0.5901    7.0372    1.9020 H       1  LIG1        0.1379
     35 H          -1.3998    6.1564   -1.8225 H       1  LIG1        0.1383
     36 H           3.3036    3.7052   -0.0075 H       1  LIG1        0.1486
     37 H           0.5414   -3.9664   -0.1701 H       1  LIG1        0.0383
     38 H           2.1487   -4.2329    0.5088 H       1  LIG1        0.0426
     39 H           0.8786   -3.4756    1.4937 H       1  LIG1        0.0518
     40 H           1.5521   -2.6687   -2.1276 H       1  LIG1        0.0444
     41 H           3.1750   -2.9151   -1.4787 H       1  LIG1        0.0537
     42 H           2.5940   -1.2731   -1.8284 H       1  LIG1        0.0443
     43 H          10.4749    0.1290    0.8752 H       1  LIG1        0.0904
     44 H           8.9685   -0.8226    1.0576 H       1  LIG1        0.0904
     45 H           9.1703    0.7137    1.9407 H       1  LIG1        0.1228
     46 H           2.4953   -1.7509    0.6378 H       1  LIG1        0.0925
@<TRIPOS>BOND
     1     1    11    1
     2     1    23    3
     3     2     6   ar
     4     2    13   ar
     5     3     7   ar
     6     3    13   ar
     7     4     8   ar
     8     4    12   ar
     9     5     9   ar
    10     5    12   ar
    11     6    15   ar
    12     7    15   ar
    13     8    16   ar
    14     9    16   ar
    15    10    14   ar
    16    10    17   ar
    17    11    14   ar
    18    11    18   ar
    19    12    14    1
    20    13    17    1
    21    15    25    1
    22    16    27    1
    23    17    24   ar
    24    18    24   ar
    25    18    26    1
    26    19    22    1
    27    20    22    1
    28    21    25    1
    29    22    26    1
    30     2    28    1
    31     3    29    1
    32     4    30    1
    33     5    31    1
    34     6    32    1
    35     7    33    1
    36     8    34    1
    37     9    35    1
    38    10    36    1
    39    19    37    1
    40    19    38    1
    41    19    39    1
    42    20    40    1
    43    20    41    1
    44    20    42    1
    45    21    43    1
    46    21    44    1
    47    21    45    1
    48    22    46    1
