@<TRIPOS>MOLECULE
AO-365/43401335
 38 41 0 0 0
SMALL
USER_CHARGES

@<TRIPOS>ATOM
      1 C           0.9379    6.5110    0.6335 C.ar    1  LIG1       -0.0931
      2 C           1.0064    5.1178    0.6243 C.ar    1  LIG1       -0.0659
      3 C           5.2521    0.1383    0.3683 C.ar    1  LIG1       -0.0542
      4 C           5.4253    2.4066   -0.4453 C.ar    1  LIG1       -0.0606
      5 C          -0.1461    7.1599    0.0424 C.ar    1  LIG1       -0.0659
      6 C           6.6425    0.0278    0.3561 C.ar    1  LIG1       -0.0410
      7 C           6.8157    2.2961   -0.4574 C.ar    1  LIG1       -0.0526
      8 C          -1.0930    5.0225   -0.5674 C.ar    1  LIG1       -0.0171
      9 C          -0.0090    4.3735    0.0238 C.ar    1  LIG1        0.0162
     10 C           4.6435    1.3277   -0.0324 C.ar    1  LIG1        0.0053
     11 C           7.4243    1.1066   -0.0567 C.ar    1  LIG1       -0.0023
     12 C          -1.1616    6.4156   -0.5581 C.ar    1  LIG1       -0.0017
     13 C           0.0613    2.9329    0.0146 C.ar    1  LIG1        0.1151
     14 C           0.8519    0.9275   -0.0035 C.ar    1  LIG1        0.1539
     15 C           3.2020    1.4426   -0.0198 C.ar    1  LIG1        0.1231
     16 C           9.3375   -0.2453    0.3529 C.3     1  LIG1        0.0278
     17 C          -3.2220    6.2280   -1.7309 C.3     1  LIG1        0.0244
     18 N          -0.9553    2.0864    0.0175 N.ar    1  LIG1       -0.2267
     19 N          -0.4422    0.7887    0.0058 N.ar    1  LIG1       -0.2356
     20 N           2.5243    2.5634   -0.0071 N.ar    1  LIG1       -0.2757
     21 N           1.2187    2.2248    0.0012 N.ar    1  LIG1       -0.2229
     22 O           8.7810    0.9990   -0.0689 O.3     1  LIG1       -0.4106
     23 O          -2.2191    7.0494   -1.1348 O.3     1  LIG1       -0.4158
     24 S           2.2341   -0.0697   -0.0203 S.2     1  LIG1        0.0504
     25 H           1.7284    7.0909    1.1009 H       1  LIG1        0.1311
     26 H           1.8579    4.6263    1.0889 H       1  LIG1        0.1296
     27 H           4.6532   -0.7090    0.6922 H       1  LIG1        0.1534
     28 H           4.9607    3.3378   -0.7592 H       1  LIG1        0.1554
     29 H          -0.1936    8.2455    0.0526 H       1  LIG1        0.1198
     30 H           7.1106   -0.9015    0.6692 H       1  LIG1        0.1431
     31 H           7.4195    3.1398   -0.7804 H       1  LIG1        0.1240
     32 H          -1.8903    4.4513   -1.0390 H       1  LIG1        0.1555
     33 H          10.4276   -0.1960    0.2949 H       1  LIG1        0.0926
     34 H           8.9638   -1.0483   -0.2873 H       1  LIG1        0.0926
     35 H           9.0382   -0.4364    1.3861 H       1  LIG1        0.1253
     36 H          -4.0073    6.8594   -2.1537 H       1  LIG1        0.0899
     37 H          -3.6438    5.5603   -0.9754 H       1  LIG1        0.0896
     38 H          -2.7676    5.6334   -2.5270 H       1  LIG1        0.1233
@<TRIPOS>BOND
     1     1     2   ar
     2     1     5   ar
     3     2     9   ar
     4     3     6   ar
     5     3    10   ar
     6     4     7   ar
     7     4    10   ar
     8     5    12   ar
     9     6    11   ar
    10     7    11   ar
    11     8     9   ar
    12     8    12   ar
    13     9    13    1
    14    10    15    1
    15    11    22    1
    16    12    23    1
    17    13    18   ar
    18    13    21   ar
    19    14    19   ar
    20    14    21   ar
    21    14    24   ar
    22    15    20   ar
    23    15    24   ar
    24    16    22    1
    25    17    23    1
    26    18    19   ar
    27    20    21   ar
    28     1    25    1
    29     2    26    1
    30     3    27    1
    31     4    28    1
    32     5    29    1
    33     6    30    1
    34     7    31    1
    35     8    32    1
    36    16    33    1
    37    16    34    1
    38    16    35    1
    39    17    36    1
    40    17    37    1
    41    17    38    1
