@<TRIPOS>MOLECULE
AE-842/32631014
 38 40 0 0 0
SMALL
USER_CHARGES

@<TRIPOS>ATOM
      1 C          -0.6596    6.8556    0.0446 C.ar    1  LIG1       -0.1040
      2 C          -0.7898    5.9464   -1.0051 C.ar    1  LIG1       -0.0994
      3 C           0.2390    6.6007    1.0807 C.ar    1  LIG1       -0.0939
      4 C          -0.0215    4.7823   -1.0188 C.ar    1  LIG1       -0.0755
      5 C           1.0072    5.4366    1.0670 C.ar    1  LIG1       -0.0667
      6 C           5.1586    0.5886    0.5599 C.ar    1  LIG1       -0.0452
      7 C           5.6571    2.6240   -0.6423 C.ar    1  LIG1       -0.0393
      8 C           6.5113    0.2486    0.5453 C.ar    1  LIG1       -0.0597
      9 C           7.0098    2.2841   -0.6569 C.ar    1  LIG1       -0.0564
     10 C           2.3389    1.2348   -0.0138 C.ar    1  LIG1        0.0247
     11 C           0.8771    4.5273    0.0172 C.ar    1  LIG1       -0.0208
     12 C           1.1992    2.0013    0.0013 C.ar    1  LIG1        0.1019
     13 C           4.7315    1.7762   -0.0340 C.ar    1  LIG1        0.0006
     14 C           7.4369    1.0963   -0.0631 C.ar    1  LIG1       -0.0079
     15 C           1.6680    3.3288    0.0034 C.ar    1  LIG1        0.0464
     16 C          -0.1407    1.4954    0.0118 C.2     1  LIG1        0.1832
     17 C          -2.2153    0.1149    1.9873 C.3     1  LIG1       -0.0334
     18 C          -1.5288   -0.3363    0.7159 C.3     1  LIG1        0.0262
     19 N           3.0014    3.4048   -0.0091 N.ar    1  LIG1       -0.2992
     20 N           3.3803    2.1155   -0.0192 N.ar    1  LIG1       -0.2770
     21 O          -1.1337    2.0703   -0.4860 O.2     1  LIG1       -0.4459
     22 O          -0.2364    0.2752    0.6416 O.3     1  LIG1       -0.3530
     23 CL          9.1061    0.6779   -0.0787 Cl      1  LIG1       -0.1377
     24 H          -1.2569    7.7626    0.0549 H       1  LIG1        0.1198
     25 H          -1.4884    6.1452   -1.8126 H       1  LIG1        0.1163
     26 H           0.3411    7.3094    1.8972 H       1  LIG1        0.1184
     27 H          -0.1345    4.0832   -1.8442 H       1  LIG1        0.1296
     28 H           1.7032    5.2525    1.8821 H       1  LIG1        0.1481
     29 H           4.4480   -0.0815    1.0378 H       1  LIG1        0.1429
     30 H           5.3377    3.5529   -1.1087 H       1  LIG1        0.1546
     31 H           6.8302   -0.6802    1.0114 H       1  LIG1        0.1480
     32 H           7.7199    2.9541   -1.1350 H       1  LIG1        0.1475
     33 H           2.4891    0.1629   -0.0208 H       1  LIG1        0.2444
     34 H          -1.6385   -0.1802    2.8682 H       1  LIG1        0.0484
     35 H          -2.3392    1.2029    1.9939 H       1  LIG1        0.0484
     36 H          -3.2179   -0.3199    2.0596 H       1  LIG1        0.0590
     37 H          -2.1108   -0.0381   -0.1612 H       1  LIG1        0.1034
     38 H          -1.4052   -1.4234    0.7112 H       1  LIG1        0.1034
@<TRIPOS>BOND
     1     1     2   ar
     2     1     3   ar
     3     2     4   ar
     4     3     5   ar
     5     4    11   ar
     6     5    11   ar
     7     6     8   ar
     8     6    13   ar
     9     7     9   ar
    10     7    13   ar
    11     8    14   ar
    12     9    14   ar
    13    10    12   ar
    14    10    20   ar
    15    11    15    1
    16    12    15   ar
    17    12    16    1
    18    13    20    1
    19    14    23    1
    20    15    19   ar
    21    16    21    2
    22    16    22    1
    23    17    18    1
    24    18    22    1
    25    19    20   ar
    26     1    24    1
    27     2    25    1
    28     3    26    1
    29     4    27    1
    30     5    28    1
    31     6    29    1
    32     7    30    1
    33     8    31    1
    34     9    32    1
    35    10    33    1
    36    17    34    1
    37    17    35    1
    38    17    36    1
    39    18    37    1
    40    18    38    1
