@<TRIPOS>MOLECULE
AO-365/43301078
 42 45 0 0 0
SMALL
USER_CHARGES

@<TRIPOS>ATOM
      1 C          -1.0929    5.0228   -0.5677 C.ar    1  LIG1       -0.0592
      2 C           1.0062    5.1176    0.6247 C.ar    1  LIG1       -0.0641
      3 C           5.2521    0.1386    0.3685 C.ar    1  LIG1       -0.0608
      4 C           5.4251    2.4070   -0.4448 C.ar    1  LIG1       -0.0543
      5 C          -1.1611    6.4159   -0.5585 C.ar    1  LIG1       -0.0581
      6 C           0.9381    6.5108    0.6338 C.ar    1  LIG1       -0.0615
      7 C           6.6425    0.0282    0.3564 C.ar    1  LIG1       -0.0532
      8 C           6.8156    2.2966   -0.4568 C.ar    1  LIG1       -0.0415
      9 C          -0.0093    4.3736    0.0240 C.ar    1  LIG1        0.0060
     10 C           4.6433    1.3280   -0.0322 C.ar    1  LIG1        0.0046
     11 C          -0.1455    7.1599    0.0422 C.ar    1  LIG1       -0.0679
     12 C           7.4242    1.1071   -0.0562 C.ar    1  LIG1       -0.0029
     13 C           0.0610    2.9329    0.0147 C.ar    1  LIG1        0.1031
     14 C           0.8519    0.9274   -0.0035 C.ar    1  LIG1        0.1485
     15 C           3.2020    1.4427   -0.0195 C.ar    1  LIG1        0.1205
     16 C          -0.2599    9.3094   -1.1935 C.3     1  LIG1       -0.0349
     17 C          -0.2544    9.2932    1.3062 C.3     1  LIG1       -0.0351
     18 C           9.3375   -0.2446    0.3535 C.3     1  LIG1        0.0275
     19 N          -0.9555    2.0863    0.0175 N.ar    1  LIG1       -0.2352
     20 N          -0.4423    0.7887    0.0057 N.ar    1  LIG1       -0.2417
     21 N           2.5241    2.5635   -0.0069 N.ar    1  LIG1       -0.2770
     22 N           1.2185    2.2248    0.0014 N.ar    1  LIG1       -0.2265
     23 N          -0.2143    8.5685    0.0514 N.pl3   1  LIG1       -0.4221
     24 O           8.7809    0.9996   -0.0683 O.3     1  LIG1       -0.4110
     25 S           2.2342   -0.0696   -0.0203 S.2     1  LIG1        0.0445
     26 H          -1.8926    4.4568   -1.0398 H       1  LIG1        0.1524
     27 H           1.8574    4.6261    1.0900 H       1  LIG1        0.1420
     28 H           4.6531   -0.7087    0.6923 H       1  LIG1        0.1548
     29 H           4.9605    3.3382   -0.7587 H       1  LIG1        0.1531
     30 H          -2.0101    6.9118   -1.0223 H       1  LIG1        0.1211
     31 H           1.7350    7.0806    1.1047 H       1  LIG1        0.1178
     32 H           7.1107   -0.9010    0.6695 H       1  LIG1        0.1234
     33 H           7.4193    3.1404   -0.7796 H       1  LIG1        0.1425
     34 H          -0.3108   10.3823   -0.9906 H       1  LIG1        0.0808
     35 H          -1.1395    9.0189   -1.7743 H       1  LIG1        0.0928
     36 H           0.6351    9.1057   -1.7875 H       1  LIG1        0.0947
     37 H          -0.3062   10.3686    1.1174 H       1  LIG1        0.0802
     38 H           0.6431    9.0818    1.8936 H       1  LIG1        0.0931
     39 H          -1.1317    8.9952    1.8868 H       1  LIG1        0.0936
     40 H          10.4276   -0.1953    0.2955 H       1  LIG1        0.0923
     41 H           8.9639   -1.0476   -0.2868 H       1  LIG1        0.0924
     42 H           9.0382   -0.4360    1.3867 H       1  LIG1        0.1250
@<TRIPOS>BOND
     1     1     5   ar
     2     1     9   ar
     3     2     6   ar
     4     2     9   ar
     5     3     7   ar
     6     3    10   ar
     7     4     8   ar
     8     4    10   ar
     9     5    11   ar
    10     6    11   ar
    11     7    12   ar
    12     8    12   ar
    13     9    13    1
    14    10    15    1
    15    11    23    1
    16    12    24    1
    17    13    19   ar
    18    13    22   ar
    19    14    20   ar
    20    14    22   ar
    21    14    25   ar
    22    15    21   ar
    23    15    25   ar
    24    16    23    1
    25    17    23    1
    26    18    24    1
    27    19    20   ar
    28    21    22   ar
    29     1    26    1
    30     2    27    1
    31     3    28    1
    32     4    29    1
    33     5    30    1
    34     6    31    1
    35     7    32    1
    36     8    33    1
    37    16    34    1
    38    16    35    1
    39    16    36    1
    40    17    37    1
    41    17    38    1
    42    17    39    1
    43    18    40    1
    44    18    41    1
    45    18    42    1
