@<TRIPOS>MOLECULE
AP-501/41329110
 38 41 0 0 0
SMALL
USER_CHARGES

@<TRIPOS>ATOM
      1 C          -1.0929    5.0228   -0.5676 C.ar    1  LIG1       -0.0512
      2 C           1.0062    5.1176    0.6247 C.ar    1  LIG1       -0.0656
      3 C           5.2520    0.1386    0.3685 C.ar    1  LIG1       -0.0609
      4 C           5.4252    2.4070   -0.4448 C.ar    1  LIG1       -0.0541
      5 C          -1.1611    6.4159   -0.5586 C.ar    1  LIG1       -0.0445
      6 C           0.9381    6.5109    0.6337 C.ar    1  LIG1       -0.0608
      7 C           6.6424    0.0281    0.3564 C.ar    1  LIG1       -0.0529
      8 C           6.8155    2.2965   -0.4569 C.ar    1  LIG1       -0.0410
      9 C          -0.0093    4.3736    0.0241 C.ar    1  LIG1        0.0088
     10 C           4.6434    1.3279   -0.0322 C.ar    1  LIG1        0.0050
     11 C          -0.1456    7.1599    0.0421 C.ar    1  LIG1       -0.0086
     12 C           7.4243    1.1071   -0.0563 C.ar    1  LIG1       -0.0024
     13 C           0.0611    2.9329    0.0148 C.ar    1  LIG1        0.1062
     14 C           0.8519    0.9275   -0.0035 C.ar    1  LIG1        0.1514
     15 C           3.2020    1.4427   -0.0195 C.ar    1  LIG1        0.1217
     16 C          -1.3477    9.1180   -0.5718 C.3     1  LIG1        0.0254
     17 C           9.3376   -0.2447    0.3534 C.3     1  LIG1        0.0277
     18 N          -0.9554    2.0863    0.0175 N.ar    1  LIG1       -0.2320
     19 N          -0.4423    0.7887    0.0057 N.ar    1  LIG1       -0.2386
     20 N           2.5241    2.5635   -0.0069 N.ar    1  LIG1       -0.2774
     21 N           1.2185    2.2249    0.0014 N.ar    1  LIG1       -0.2260
     22 O          -0.2122    8.5194    0.0509 O.3     1  LIG1       -0.4144
     23 O           8.7809    0.9995   -0.0683 O.3     1  LIG1       -0.4106
     24 S           2.2342   -0.0696   -0.0203 S.2     1  LIG1        0.0481
     25 H          -1.8925    4.4569   -1.0398 H       1  LIG1        0.1591
     26 H           1.8574    4.6264    1.0901 H       1  LIG1        0.1430
     27 H           4.6532   -0.7088    0.6923 H       1  LIG1        0.1546
     28 H           4.9605    3.3382   -0.7587 H       1  LIG1        0.1534
     29 H          -2.0078    6.9159   -1.0210 H       1  LIG1        0.1380
     30 H           1.7321    7.0851    1.1032 H       1  LIG1        0.1174
     31 H           7.1106   -0.9011    0.6695 H       1  LIG1        0.1237
     32 H           7.4193    3.1403   -0.7796 H       1  LIG1        0.1431
     33 H          -1.2760   10.2055   -0.4939 H       1  LIG1        0.0903
     34 H          -2.2600    8.7664   -0.0831 H       1  LIG1        0.0901
     35 H          -1.3677    8.8309   -1.6258 H       1  LIG1        0.1234
     36 H          10.4277   -0.1954    0.2954 H       1  LIG1        0.0925
     37 H           8.9639   -1.0478   -0.2869 H       1  LIG1        0.0925
     38 H           9.0381   -0.4360    1.3866 H       1  LIG1        0.1254
@<TRIPOS>BOND
     1     1     5   ar
     2     1     9   ar
     3     2     6   ar
     4     2     9   ar
     5     3     7   ar
     6     3    10   ar
     7     4     8   ar
     8     4    10   ar
     9     5    11   ar
    10     6    11   ar
    11     7    12   ar
    12     8    12   ar
    13     9    13    1
    14    10    15    1
    15    11    22    1
    16    12    23    1
    17    13    18   ar
    18    13    21   ar
    19    14    19   ar
    20    14    21   ar
    21    14    24   ar
    22    15    20   ar
    23    15    24   ar
    24    16    22    1
    25    17    23    1
    26    18    19   ar
    27    20    21   ar
    28     1    25    1
    29     2    26    1
    30     3    27    1
    31     4    28    1
    32     5    29    1
    33     6    30    1
    34     7    31    1
    35     8    32    1
    36    16    33    1
    37    16    34    1
    38    16    35    1
    39    17    36    1
    40    17    37    1
    41    17    38    1
