@<TRIPOS>MOLECULE
AG-690/40749461
 40 42 0 0 0
SMALL
USER_CHARGES

@<TRIPOS>ATOM
      1 C          -0.9010    1.8118    0.0163 C.1     1  LIG1        0.0752
      2 C           5.4411    1.9052   -1.0860 C.ar    1  LIG1       -0.0630
      3 C           5.3207    0.6947    1.0014 C.ar    1  LIG1       -0.0767
      4 C           0.3894    4.8546   -1.1842 C.ar    1  LIG1       -0.0743
      5 C           0.4092    4.8402    1.2317 C.ar    1  LIG1       -0.0755
      6 C           6.8263    1.7421   -1.1008 C.ar    1  LIG1       -0.0496
      7 C           6.7059    0.5315    0.9866 C.ar    1  LIG1       -0.0645
      8 C          -0.1946    6.1213   -1.1718 C.ar    1  LIG1       -0.0661
      9 C          -0.1747    6.1068    1.2441 C.ar    1  LIG1       -0.0662
     10 C           2.6842    2.8128   -0.0073 C.ar    1  LIG1       -0.0194
     11 C           0.5326    1.7380    0.0043 C.ar    1  LIG1        0.1144
     12 C           0.6913    4.2140    0.0176 C.ar    1  LIG1       -0.0529
     13 C           4.6883    1.3816   -0.0349 C.ar    1  LIG1       -0.0290
     14 C           1.2965    2.8998    0.0048 C.ar    1  LIG1       -0.0075
     15 C           7.4587    1.0553   -0.0645 C.ar    1  LIG1       -0.0115
     16 C          -0.4766    6.7474    0.0422 C.ar    1  LIG1       -0.0113
     17 C           3.2547    1.5503   -0.0195 C.ar    1  LIG1       -0.0052
     18 C           1.1995    0.5236   -0.0086 C.ar    1  LIG1        0.0546
     19 C           9.3921    0.1832    1.0114 C.3     1  LIG1        0.0251
     20 C           0.9675   -1.7396    1.5203 C.3     1  LIG1        0.0100
     21 N          -2.0599    1.8714    0.0259 N.1     1  LIG1       -0.3596
     22 N           2.5456    0.3992   -0.0206 N.ar    1  LIG1       -0.3610
     23 O           8.8101    0.8958   -0.0794 O.3     1  LIG1       -0.4155
     24 S           0.3224   -1.0394   -0.0127 S.3     1  LIG1       -0.1277
     25 CL         -1.1985    8.3096    0.0566 Cl      1  LIG1       -0.1376
     26 H           4.9625    2.4430   -1.9010 H       1  LIG1        0.1530
     27 H           4.7478    0.2805    1.8276 H       1  LIG1        0.1392
     28 H           0.6031    4.3793   -2.1386 H       1  LIG1        0.1416
     29 H           0.6378    4.3534    2.1770 H       1  LIG1        0.1354
     30 H           7.4073    2.1522   -1.9223 H       1  LIG1        0.1315
     31 H           7.1931   -0.0046    1.7964 H       1  LIG1        0.1155
     32 H          -0.4263    6.6083   -2.1158 H       1  LIG1        0.1384
     33 H          -0.3901    6.5825    2.1976 H       1  LIG1        0.1380
     34 H           3.3040    3.7053   -0.0076 H       1  LIG1        0.1492
     35 H          10.4750    0.1283    0.8752 H       1  LIG1        0.0905
     36 H           8.9684   -0.8232    1.0577 H       1  LIG1        0.1228
     37 H           9.1704    0.7131    1.9407 H       1  LIG1        0.0905
     38 H           0.5307   -2.7266    1.6909 H       1  LIG1        0.0801
     39 H           0.7153   -1.0882    2.3607 H       1  LIG1        0.0801
     40 H           2.0540   -1.8358    1.4560 H       1  LIG1        0.0890
@<TRIPOS>BOND
     1     1    11    1
     2     1    21    3
     3     2     6   ar
     4     2    13   ar
     5     3     7   ar
     6     3    13   ar
     7     4     8   ar
     8     4    12   ar
     9     5     9   ar
    10     5    12   ar
    11     6    15   ar
    12     7    15   ar
    13     8    16   ar
    14     9    16   ar
    15    10    14   ar
    16    10    17   ar
    17    11    14   ar
    18    11    18   ar
    19    12    14    1
    20    13    17    1
    21    15    23    1
    22    16    25    1
    23    17    22   ar
    24    18    22   ar
    25    18    24    1
    26    19    23    1
    27    20    24    1
    28     2    26    1
    29     3    27    1
    30     4    28    1
    31     5    29    1
    32     6    30    1
    33     7    31    1
    34     8    32    1
    35     9    33    1
    36    10    34    1
    37    19    35    1
    38    19    36    1
    39    19    37    1
    40    20    38    1
    41    20    39    1
    42    20    40    1
