@<TRIPOS>MOLECULE
AG-205/33140043
 49 53 0 0 0
SMALL
USER_CHARGES

@<TRIPOS>ATOM
      1 C           7.8076    1.4360   -0.0641 C.ar    1  LIG1       -0.1029
      2 C           7.1335    2.0825   -1.1001 C.ar    1  LIG1       -0.0991
      3 C           7.0888    0.8629    0.9850 C.ar    1  LIG1       -0.0960
      4 C           5.7406    2.1560   -1.0869 C.ar    1  LIG1       -0.0785
      5 C           5.6959    0.9365    0.9982 C.ar    1  LIG1       -0.0731
      6 C           1.0479    5.0774    1.0651 C.ar    1  LIG1       -0.0778
      7 C          -0.0250    4.5002   -1.0214 C.ar    1  LIG1       -0.0864
      8 C           0.3668    6.2945    1.0785 C.ar    1  LIG1       -0.0531
      9 C          -0.7060    5.7174   -1.0078 C.ar    1  LIG1       -0.0652
     10 C           2.9479    2.8909   -0.0114 C.ar    1  LIG1       -0.0240
     11 C           0.8525    1.6988   -0.0005 C.ar    1  LIG1        0.0113
     12 C           0.8519    4.1802    0.0151 C.ar    1  LIG1       -0.0649
     13 C           5.0218    1.5830   -0.0378 C.ar    1  LIG1       -0.0285
     14 C           1.5570    2.9199    0.0010 C.ar    1  LIG1       -0.0439
     15 C          -0.5456    1.3898    0.0096 C.ar    1  LIG1       -0.0472
     16 C          -0.5101    6.6145    0.0421 C.ar    1  LIG1       -0.0117
     17 C           3.5783    1.6592   -0.0246 C.ar    1  LIG1        0.0036
     18 C          -0.7878    0.0338    0.0032 C.ar    1  LIG1        0.0761
     19 C           1.6148    0.5354   -0.0144 C.ar    1  LIG1        0.0558
     20 C          -2.0333   -0.6668    0.0096 C.2     1  LIG1        0.0672
     21 C          -4.4062    0.3817   -0.1367 C.3     1  LIG1       -0.0527
     22 C          -4.5048   -0.7842    0.8029 C.3     1  LIG1       -0.0530
     23 C          -3.2192   -0.0183    0.6896 C.3     1  LIG1        0.0093
     24 C          -2.0563    8.0655   -1.0350 C.3     1  LIG1        0.0253
     25 N           2.9621    0.4578   -0.0268 N.ar    1  LIG1       -0.3501
     26 N          -1.5422    2.3101    0.0238 N.pl3   1  LIG1       -0.3984
     27 O          -2.2454   -1.7871   -0.4965 O.2     1  LIG1       -0.4769
     28 O          -1.1750    7.8020    0.0558 O.3     1  LIG1       -0.4154
     29 S           0.6591   -0.8770   -0.0150 S.2     1  LIG1       -0.0489
     30 H           8.8920    1.3774   -0.0754 H       1  LIG1        0.1220
     31 H           7.6929    2.5272   -1.9180 H       1  LIG1        0.1197
     32 H           7.6129    0.3582    1.7914 H       1  LIG1        0.1201
     33 H           5.2298    2.6632   -1.9021 H       1  LIG1        0.1292
     34 H           5.1491    0.4846    1.8223 H       1  LIG1        0.1409
     35 H           1.7280    4.8422    1.8802 H       1  LIG1        0.1420
     36 H          -0.1884    3.8114   -1.8468 H       1  LIG1        0.1373
     37 H           0.5233    6.9893    1.8993 H       1  LIG1        0.1333
     38 H          -1.3881    5.9613   -1.8178 H       1  LIG1        0.1159
     39 H           3.5227    3.8134   -0.0107 H       1  LIG1        0.1454
     40 H          -4.3783    0.1711   -1.1989 H       1  LIG1        0.0673
     41 H          -4.9411    1.2863    0.1260 H       1  LIG1        0.0663
     42 H          -5.1076   -0.6615    1.6944 H       1  LIG1        0.0672
     43 H          -4.5398   -1.7776    0.3723 H       1  LIG1        0.0652
     44 H          -2.9636    0.6310    1.5201 H       1  LIG1        0.0822
     45 H          -2.5216    9.0449   -0.8999 H       1  LIG1        0.1236
     46 H          -2.8237    7.2887   -1.0803 H       1  LIG1        0.0905
     47 H          -1.4822    8.0624   -1.9646 H       1  LIG1        0.0906
     48 H          -1.3484    3.3176    0.0761 H       1  LIG1        0.2666
     49 H          -2.5309    2.0368    0.0782 H       1  LIG1        0.2735
@<TRIPOS>BOND
     1     1     2   ar
     2     1     3   ar
     3     2     4   ar
     4     3     5   ar
     5     4    13   ar
     6     5    13   ar
     7     6     8   ar
     8     6    12   ar
     9     7     9   ar
    10     7    12   ar
    11     8    16   ar
    12     9    16   ar
    13    10    14   ar
    14    10    17   ar
    15    11    14   ar
    16    11    15   ar
    17    11    19   ar
    18    12    14    1
    19    13    17    1
    20    15    18   ar
    21    15    26    1
    22    16    28    1
    23    17    25   ar
    24    18    20    1
    25    18    29   ar
    26    19    25   ar
    27    19    29   ar
    28    20    23    1
    29    20    27    2
    30    21    22    1
    31    21    23    1
    32    22    23    1
    33    24    28    1
    34     1    30    1
    35     2    31    1
    36     3    32    1
    37     4    33    1
    38     5    34    1
    39     6    35    1
    40     7    36    1
    41     8    37    1
    42     9    38    1
    43    10    39    1
    44    21    40    1
    45    21    41    1
    46    22    42    1
    47    22    43    1
    48    23    44    1
    49    24    45    1
    50    24    46    1
    51    24    47    1
    52    26    48    1
    53    26    49    1
