@<TRIPOS>MOLECULE
AI-346/11356024
 47 50 0 0 0
SMALL
USER_CHARGES

@<TRIPOS>ATOM
      1 C          -0.5223    6.8899    0.4105 C.ar    1  LIG1       -0.1065
      2 C          -1.1519    6.0048   -0.4646 C.ar    1  LIG1       -0.1043
      3 C           0.7479    6.5954    0.9061 C.ar    1  LIG1       -0.1036
      4 C           5.2317    0.7854    0.8719 C.ar    1  LIG1       -0.0695
      5 C          -0.5115    4.8253   -0.8440 C.ar    1  LIG1       -0.0953
      6 C           1.3884    5.4158    0.5266 C.ar    1  LIG1       -0.0935
      7 C           6.5757    0.4161    0.8542 C.ar    1  LIG1       -0.0611
      8 C           6.9871    1.9593   -0.9641 C.ar    1  LIG1       -0.0478
      9 C           4.7736    1.7491   -0.0290 C.ar    1  LIG1       -0.0249
     10 C           0.7587    4.5307   -0.3485 C.ar    1  LIG1       -0.0760
     11 C           5.6380    2.3356   -0.9706 C.ar    1  LIG1       -0.0730
     12 C           7.4519    1.0034   -0.0585 C.ar    1  LIG1       -0.0101
     13 C           3.3611    2.1500   -0.0362 C.2     1  LIG1        0.0136
     14 C           0.0033    1.5801    0.4827 C.2     1  LIG1        0.1234
     15 C           5.1613    3.3797   -1.9562 C.3     1  LIG1       -0.0271
     16 C           3.6380    3.3841   -2.1360 C.3     1  LIG1       -0.0333
     17 C           1.4544    3.2506   -0.7597 C.3     1  LIG1        0.0359
     18 C           2.9735    3.4030   -0.7693 C.3     1  LIG1        0.0276
     19 C           0.1448   -0.8755    0.7166 C.3     1  LIG1       -0.0390
     20 C           9.1737   -0.3396    0.8835 C.3     1  LIG1        0.0249
     21 C           0.0375    0.4319    1.4618 C.3     1  LIG1        0.0561
     22 N           2.3945    1.4971    0.5259 N.2     1  LIG1       -0.3105
     23 N           1.2344    2.1283    0.1677 N.am    1  LIG1       -0.2650
     24 O          -1.0676    1.9723    0.0175 O.2     1  LIG1       -0.4638
     25 O           8.7648    0.6426   -0.0668 O.3     1  LIG1       -0.4154
     26 H          -1.0206    7.8090    0.7048 H       1  LIG1        0.1158
     27 H          -2.1405    6.2345   -0.8515 H       1  LIG1        0.1152
     28 H           1.2388    7.2848    1.5865 H       1  LIG1        0.1176
     29 H           4.5649    0.3221    1.5934 H       1  LIG1        0.1467
     30 H          -1.0098    4.1414   -1.5261 H       1  LIG1        0.1125
     31 H           2.3779    5.1947    0.9179 H       1  LIG1        0.1207
     32 H           6.9367   -0.3300    1.5569 H       1  LIG1        0.1164
     33 H           7.6801    2.4104   -1.6708 H       1  LIG1        0.1334
     34 H           5.4893    4.3633   -1.5975 H       1  LIG1        0.0789
     35 H           5.6285    3.2086   -2.9333 H       1  LIG1        0.0784
     36 H           3.3334    4.2548   -2.7269 H       1  LIG1        0.0580
     37 H           3.3369    2.4883   -2.6952 H       1  LIG1        0.0660
     38 H           1.0530    2.9496   -1.7507 H       1  LIG1        0.1402
     39 H           3.3100    4.2659   -0.1795 H       1  LIG1        0.1095
     40 H          -0.7243   -1.0035    0.0640 H       1  LIG1        0.0430
     41 H           0.1853   -1.7251    1.4067 H       1  LIG1        0.0405
     42 H           1.0470   -0.9089    0.0967 H       1  LIG1        0.0408
     43 H          10.2427   -0.5353    0.7694 H       1  LIG1        0.1226
     44 H           8.6052   -1.2596    0.7256 H       1  LIG1        0.0904
     45 H           8.9802    0.0377    1.8905 H       1  LIG1        0.0904
     46 H           0.8911    0.5848    2.1198 H       1  LIG1        0.1012
     47 H          -0.8796    0.4783    2.0466 H       1  LIG1        0.0997
@<TRIPOS>BOND
     1     1     2   ar
     2     1     3   ar
     3     2     5   ar
     4     3     6   ar
     5     4     7   ar
     6     4     9   ar
     7     5    10   ar
     8     6    10   ar
     9     7    12   ar
    10     8    11   ar
    11     8    12   ar
    12     9    11   ar
    13     9    13    1
    14    10    17    1
    15    11    15    1
    16    12    25    1
    17    13    18    1
    18    13    22    2
    19    14    21    1
    20    14    23   am
    21    14    24    2
    22    15    16    1
    23    16    18    1
    24    17    18    1
    25    17    23    1
    26    19    21    1
    27    20    25    1
    28    22    23    1
    29     1    26    1
    30     2    27    1
    31     3    28    1
    32     4    29    1
    33     5    30    1
    34     6    31    1
    35     7    32    1
    36     8    33    1
    37    15    34    1
    38    15    35    1
    39    16    36    1
    40    16    37    1
    41    17    38    1
    42    18    39    1
    43    19    40    1
    44    19    41    1
    45    19    42    1
    46    20    43    1
    47    20    44    1
    48    20    45    1
    49    21    46    1
    50    21    47    1
