@<TRIPOS>MOLECULE
AG-690/12404942
 38 41 0 0 0
SMALL
USER_CHARGES

@<TRIPOS>ATOM
      1 C           5.4645    2.4067   -0.6545 C.ar    1  LIG1       -0.0702
      2 C           5.2495    0.3774    0.6391 C.ar    1  LIG1       -0.0769
      3 C          -0.3456    5.0418   -1.1312 C.ar    1  LIG1       -0.0785
      4 C           0.8785    5.2404    0.9422 C.ar    1  LIG1       -0.0775
      5 C           6.8426    2.2077   -0.7376 C.ar    1  LIG1       -0.0912
      6 C           6.6277    0.1784    0.5558 C.ar    1  LIG1       -0.0953
      7 C          -0.9746    6.2605   -0.8768 C.ar    1  LIG1       -0.0751
      8 C           0.2496    6.4592    1.1967 C.ar    1  LIG1       -0.0752
      9 C          -1.0269    0.7697    0.4541 C.ar    1  LIG1        0.0578
     10 C           4.6680    1.4915    0.0340 C.ar    1  LIG1       -0.0258
     11 C           0.5810    4.5317   -0.2218 C.ar    1  LIG1       -0.0592
     12 C           7.4242    1.0936   -0.1326 C.ar    1  LIG1       -0.1120
     13 C          -0.6769    6.9692    0.2872 C.ar    1  LIG1       -0.0369
     14 C           1.0778    0.8659    0.3266 C.ar    1  LIG1        0.1025
     15 C           3.1946    1.7030    0.1231 C.2     1  LIG1        0.0146
     16 C           2.6698    3.1391    0.1088 C.3     1  LIG1        0.0522
     17 C           1.2635    3.2090   -0.4980 C.3     1  LIG1        0.0501
     18 C           8.8976    0.8806   -0.2227 C.3     1  LIG1       -0.0394
     19 N           0.1064    0.0333    0.6546 N.ar    1  LIG1       -0.3139
     20 N          -0.8379    2.0145    0.0158 N.ar    1  LIG1       -0.3057
     21 N           2.4186    0.6651    0.2544 N.2     1  LIG1       -0.2965
     22 N           0.5015    2.0639   -0.0173 N.ar    1  LIG1       -0.2683
     23 BR         -1.5300    8.6200    0.6317 Br      1  LIG1       -0.1060
     24 H           5.0212    3.2780   -1.1295 H       1  LIG1        0.1479
     25 H           4.6388   -0.3421    1.1780 H       1  LIG1        0.1345
     26 H          -0.5835    4.4965   -2.0408 H       1  LIG1        0.1289
     27 H           1.5984    4.8503    1.6569 H       1  LIG1        0.1365
     28 H           7.4555    2.9255   -1.2762 H       1  LIG1        0.1230
     29 H           7.0723   -0.6927    1.0298 H       1  LIG1        0.1224
     30 H          -1.6948    6.6433   -1.5953 H       1  LIG1        0.1373
     31 H           0.4928    6.9990    2.1081 H       1  LIG1        0.1387
     32 H          -2.0199    0.3844    0.6322 H       1  LIG1        0.2911
     33 H           2.7071    3.5724    1.1076 H       1  LIG1        0.1111
     34 H           3.3577    3.6990   -0.5305 H       1  LIG1        0.1212
     35 H           1.3502    3.0969   -1.6143 H       1  LIG1        0.1602
     36 H           9.4057    1.3648    0.6202 H       1  LIG1        0.0607
     37 H           9.1471   -0.1883   -0.2120 H       1  LIG1        0.0565
     38 H           9.3031    1.2920   -1.1563 H       1  LIG1        0.0562
@<TRIPOS>BOND
     1     1     5   ar
     2     1    10   ar
     3     2     6   ar
     4     2    10   ar
     5     3     7   ar
     6     3    11   ar
     7     4     8   ar
     8     4    11   ar
     9     5    12   ar
    10     6    12   ar
    11     7    13   ar
    12     8    13   ar
    13     9    19   ar
    14     9    20   ar
    15    10    15    1
    16    11    17    1
    17    12    18    1
    18    13    23    1
    19    14    19   ar
    20    14    21    1
    21    14    22   ar
    22    15    16    1
    23    15    21    2
    24    16    17    1
    25    17    22    1
    26    20    22   ar
    27     1    24    1
    28     2    25    1
    29     3    26    1
    30     4    27    1
    31     5    28    1
    32     6    29    1
    33     7    30    1
    34     8    31    1
    35     9    32    1
    36    16    33    1
    37    16    34    1
    38    17    35    1
    39    18    36    1
    40    18    37    1
    41    18    38    1
