@<TRIPOS>MOLECULE
AO-476/42169422
 28 30 0 0 0
SMALL
USER_CHARGES

@<TRIPOS>ATOM
      1 C           7.4442    1.1540   -0.0625 C.ar    1  LIG1       -0.0981
      2 C           6.5331    0.2875    0.5413 C.ar    1  LIG1       -0.0888
      3 C           6.9968    2.3364   -0.6519 C.ar    1  LIG1       -0.0917
      4 C          -0.7288    6.0220   -0.5265 C.ar    1  LIG1       -0.0844
      5 C           5.1745    0.6033    0.5555 C.ar    1  LIG1       -0.0520
      6 C           5.6382    2.6522   -0.6377 C.ar    1  LIG1       -0.0574
      7 C          -0.1404    4.8033   -0.9409 C.ar    1  LIG1       -0.0643
      8 C           2.3545    1.1989   -0.0186 C.ar    1  LIG1        0.0113
      9 C          -0.1200    6.3558    0.6609 C.ar    1  LIG1        0.0087
     10 C           1.2014    1.9446   -0.0024 C.ar    1  LIG1        0.0588
     11 C           4.7270    1.7856   -0.0340 C.ar    1  LIG1       -0.0060
     12 C           1.6461    3.2803    0.0052 C.ar    1  LIG1        0.0624
     13 C           0.7862    4.4794    0.0227 C.ar    1  LIG1        0.0625
     14 C          -0.1292    1.4150    0.0042 C.2     1  LIG1        0.0883
     15 N           2.9781    3.3803   -0.0051 N.ar    1  LIG1       -0.2893
     16 N           3.3800    2.0980   -0.0193 N.ar    1  LIG1       -0.2767
     17 O          -1.1582    2.1180    0.0194 O.2     1  LIG1       -0.4710
     18 O           0.8049    5.4208    1.0025 O.2     1  LIG1       -0.3612
     19 H           8.5022    0.9095   -0.0722 H       1  LIG1        0.1236
     20 H           6.8814   -0.6326    1.0015 H       1  LIG1        0.1314
     21 H           7.7072    3.0114   -1.1206 H       1  LIG1        0.1323
     22 H          -1.5000    6.5865   -1.0303 H       1  LIG1        0.1214
     23 H           4.4749   -0.0806    1.0302 H       1  LIG1        0.1426
     24 H           5.3032    3.5774   -1.1002 H       1  LIG1        0.1314
     25 H          -0.3699    4.2388   -1.8340 H       1  LIG1        0.1373
     26 H           2.5239    0.1299   -0.0301 H       1  LIG1        0.2406
     27 H          -0.2261    7.1813    1.3492 H       1  LIG1        0.2285
     28 H          -0.2599    0.3004   -0.0044 H       1  LIG1        0.2600
@<TRIPOS>BOND
     1     1     2   ar
     2     1     3   ar
     3     2     5   ar
     4     3     6   ar
     5     4     7   ar
     6     4     9   ar
     7     5    11   ar
     8     6    11   ar
     9     7    13   ar
    10     8    10   ar
    11     8    16   ar
    12     9    18   ar
    13    10    12   ar
    14    10    14    1
    15    11    16    1
    16    12    13    1
    17    12    15   ar
    18    13    18   ar
    19    14    17    2
    20    15    16   ar
    21     1    19    1
    22     2    20    1
    23     3    21    1
    24     4    22    1
    25     5    23    1
    26     6    24    1
    27     7    25    1
    28     8    26    1
    29     9    27    1
    30    14    28    1
