@<TRIPOS>MOLECULE
AO-365/43401338
 42 45 0 0 0
SMALL
USER_CHARGES

@<TRIPOS>ATOM
      1 C           0.9379    6.5110    0.6335 C.ar    1  LIG1       -0.0935
      2 C           1.0064    5.1178    0.6243 C.ar    1  LIG1       -0.0659
      3 C           5.2801    0.6599    1.0137 C.ar    1  LIG1       -0.0492
      4 C          -0.1461    7.1599    0.0424 C.ar    1  LIG1       -0.0666
      5 C           6.6695    0.5370    1.0197 C.ar    1  LIG1       -0.0508
      6 C          -1.0930    5.0225   -0.5674 C.ar    1  LIG1       -0.0175
      7 C           6.7857    1.7501   -1.0665 C.ar    1  LIG1       -0.0090
      8 C          -0.0090    4.3735    0.0238 C.ar    1  LIG1        0.0153
      9 C           4.6435    1.3277   -0.0324 C.ar    1  LIG1        0.0516
     10 C          -1.1616    6.4156   -0.5581 C.ar    1  LIG1       -0.0023
     11 C           7.4224    1.0822   -0.0203 C.ar    1  LIG1       -0.0010
     12 C           5.3962    1.8729   -1.0725 C.ar    1  LIG1        0.0352
     13 C           0.0613    2.9329    0.0146 C.ar    1  LIG1        0.1128
     14 C           0.8519    0.9275   -0.0035 C.ar    1  LIG1        0.1566
     15 C           3.2020    1.4426   -0.0198 C.ar    1  LIG1        0.1360
     16 C          -2.2252    8.4754   -1.0892 C.3     1  LIG1        0.0242
     17 C           9.3631    0.2647    1.0845 C.3     1  LIG1        0.0295
     18 C           4.4132    1.7476   -3.2343 C.3     1  LIG1        0.0318
     19 N          -0.9553    2.0864    0.0175 N.ar    1  LIG1       -0.2299
     20 N          -0.4422    0.7887    0.0058 N.ar    1  LIG1       -0.2392
     21 N           2.5243    2.5634   -0.0071 N.ar    1  LIG1       -0.2777
     22 N           1.2187    2.2248    0.0012 N.ar    1  LIG1       -0.2257
     23 O          -2.2191    7.0494   -1.1348 O.3     1  LIG1       -0.4160
     24 O           8.7782    0.9611   -0.0147 O.3     1  LIG1       -0.4083
     25 O           4.7933    2.5290   -2.1038 O.3     1  LIG1       -0.4007
     26 S           2.2341   -0.0697   -0.0203 S.2     1  LIG1        0.0621
     27 H           1.7284    7.0909    1.1009 H       1  LIG1        0.1306
     28 H           1.8579    4.6263    1.0889 H       1  LIG1        0.1298
     29 H           4.7045    0.2309    1.8301 H       1  LIG1        0.1686
     30 H          -0.1936    8.2455    0.0526 H       1  LIG1        0.1188
     31 H           7.1588    0.0152    1.8375 H       1  LIG1        0.1202
     32 H          -1.8903    4.4513   -1.0390 H       1  LIG1        0.1549
     33 H           7.3726    2.1725   -1.8783 H       1  LIG1        0.1356
     34 H          -3.1232    8.8527   -1.5845 H       1  LIG1        0.1229
     35 H          -1.3320    8.8606   -1.5876 H       1  LIG1        0.0894
     36 H          -2.2250    8.7976   -0.0452 H       1  LIG1        0.0897
     37 H          10.4491    0.2405    0.9652 H       1  LIG1        0.1259
     38 H           8.9674   -0.7532    1.1244 H       1  LIG1        0.0941
     39 H           9.1123    0.7876    2.0106 H       1  LIG1        0.0941
     40 H           3.9443    2.3916   -3.9824 H       1  LIG1        0.0970
     41 H           3.7153    0.9671   -2.9210 H       1  LIG1        0.0970
     42 H           5.3055    1.2851   -3.6630 H       1  LIG1        0.1293
@<TRIPOS>BOND
     1     1     2   ar
     2     1     4   ar
     3     2     8   ar
     4     3     5   ar
     5     3     9   ar
     6     4    10   ar
     7     5    11   ar
     8     6     8   ar
     9     6    10   ar
    10     7    11   ar
    11     7    12   ar
    12     8    13    1
    13     9    12   ar
    14     9    15    1
    15    10    23    1
    16    11    24    1
    17    12    25    1
    18    13    19   ar
    19    13    22   ar
    20    14    20   ar
    21    14    22   ar
    22    14    26   ar
    23    15    21   ar
    24    15    26   ar
    25    16    23    1
    26    17    24    1
    27    18    25    1
    28    19    20   ar
    29    21    22   ar
    30     1    27    1
    31     2    28    1
    32     3    29    1
    33     4    30    1
    34     5    31    1
    35     6    32    1
    36     7    33    1
    37    16    34    1
    38    16    35    1
    39    16    36    1
    40    17    37    1
    41    17    38    1
    42    17    39    1
    43    18    40    1
    44    18    41    1
    45    18    42    1
