@<TRIPOS>MOLECULE
AP-501/43179269
 34 37 0 0 0
SMALL
USER_CHARGES

@<TRIPOS>ATOM
      1 C          -0.7223    6.3993   -1.0035 C.ar    1  LIG1       -0.0773
      2 C          -0.6331    5.0075   -1.0132 C.ar    1  LIG1       -0.0547
      3 C           5.3491    0.1893    0.3629 C.ar    1  LIG1       -0.0541
      4 C           5.4869    2.4604   -0.4498 C.ar    1  LIG1       -0.0605
      5 C           6.7410    0.1002    0.3498 C.ar    1  LIG1       -0.0407
      6 C           6.8788    2.3713   -0.4628 C.ar    1  LIG1       -0.0522
      7 C          -0.1550    7.1274    0.0424 C.ar    1  LIG1       -0.0425
      8 C           0.5904    5.0714    1.0692 C.ar    1  LIG1       -0.0121
      9 C           0.0232    4.3434    0.0232 C.ar    1  LIG1        0.0171
     10 C           4.7220    1.3694   -0.0370 C.ar    1  LIG1        0.0056
     11 C           7.5058    1.1911   -0.0629 C.ar    1  LIG1       -0.0018
     12 C           0.5011    6.4634    1.0788 C.ar    1  LIG1        0.0724
     13 C           0.1157    2.9039    0.0133 C.ar    1  LIG1        0.1135
     14 C           0.9372    0.9108   -0.0061 C.ar    1  LIG1        0.1549
     15 C           3.2790    1.4620   -0.0234 C.ar    1  LIG1        0.1236
     16 C           9.4399   -0.1313    0.3450 C.3     1  LIG1        0.0280
     17 N          -0.8878    2.0418    0.0164 N.ar    1  LIG1       -0.2268
     18 N          -0.3548    0.7522    0.0039 N.ar    1  LIG1       -0.2347
     19 N           2.5840    2.5723   -0.0100 N.ar    1  LIG1       -0.2768
     20 N           1.2837    2.2137   -0.0010 N.ar    1  LIG1       -0.2241
     21 O           8.8641    1.1044   -0.0760 O.3     1  LIG1       -0.4103
     22 F           1.0461    7.1625    2.0829 F       1  LIG1       -0.2663
     23 S           2.3345   -0.0648   -0.0241 S.2     1  LIG1        0.0525
     24 H          -1.2336    6.9170   -1.8101 H       1  LIG1        0.1421
     25 H          -1.0801    4.4542   -1.8358 H       1  LIG1        0.1504
     26 H           4.7634   -0.6672    0.6868 H       1  LIG1        0.1536
     27 H           5.0078    3.3845   -0.7631 H       1  LIG1        0.1553
     28 H           7.2236   -0.8218    0.6623 H       1  LIG1        0.1434
     29 H           7.4694    3.2243   -0.7857 H       1  LIG1        0.1245
     30 H          -0.2244    8.2108    0.0503 H       1  LIG1        0.1399
     31 H           1.1044    4.5687    1.8847 H       1  LIG1        0.1471
     32 H          10.5291   -0.0652    0.2864 H       1  LIG1        0.0928
     33 H           9.0782   -0.9396   -0.2953 H       1  LIG1        0.1255
     34 H           9.1442   -0.3275    1.3783 H       1  LIG1        0.0928
@<TRIPOS>BOND
     1     1     2   ar
     2     1     7   ar
     3     2     9   ar
     4     3     5   ar
     5     3    10   ar
     6     4     6   ar
     7     4    10   ar
     8     5    11   ar
     9     6    11   ar
    10     7    12   ar
    11     8     9   ar
    12     8    12   ar
    13     9    13    1
    14    10    15    1
    15    11    21    1
    16    12    22    1
    17    13    17   ar
    18    13    20   ar
    19    14    18   ar
    20    14    20   ar
    21    14    23   ar
    22    15    19   ar
    23    15    23   ar
    24    16    21    1
    25    17    18   ar
    26    19    20   ar
    27     1    24    1
    28     2    25    1
    29     3    26    1
    30     4    27    1
    31     5    28    1
    32     6    29    1
    33     7    30    1
    34     8    31    1
    35    16    32    1
    36    16    33    1
    37    16    34    1
