@<TRIPOS>MOLECULE
AO-476/42123765
 41 43 0 0 0
SMALL
USER_CHARGES

@<TRIPOS>ATOM
      1 C          -0.9590    1.8430    0.0209 C.1     1  LIG1        0.0629
      2 C           5.3838    1.9003   -1.0856 C.ar    1  LIG1       -0.0723
      3 C           5.2536    0.6908    1.0018 C.ar    1  LIG1       -0.0771
      4 C           0.3532    4.8887   -1.1837 C.ar    1  LIG1       -0.0839
      5 C           0.3748    4.8752    1.2321 C.ar    1  LIG1       -0.0761
      6 C           6.7677    1.7262   -1.1002 C.ar    1  LIG1       -0.0961
      7 C           6.6376    0.5167    0.9871 C.ar    1  LIG1       -0.0987
      8 C          -0.2217    6.1595   -1.1715 C.ar    1  LIG1       -0.0655
      9 C          -0.2000    6.1461    1.2443 C.ar    1  LIG1       -0.0533
     10 C           2.6344    2.8302   -0.0072 C.ar    1  LIG1       -0.0286
     11 C           0.4740    1.7732    0.0057 C.ar    1  LIG1        0.1224
     12 C           0.6514    4.2465    0.0180 C.ar    1  LIG1       -0.0576
     13 C           4.6268    1.3826   -0.0346 C.ar    1  LIG1       -0.0286
     14 C           1.2476    2.9287    0.0056 C.ar    1  LIG1       -0.0177
     15 C           7.3945    1.0344   -0.0639 C.ar    1  LIG1       -0.1163
     16 C          -0.4983    6.7882    0.0425 C.ar    1  LIG1       -0.0124
     17 C           3.1945    1.5629   -0.0195 C.ar    1  LIG1       -0.0057
     18 C           1.1309    0.5533   -0.0073 C.ar    1  LIG1        0.0219
     19 C           8.8741    0.8485   -0.0792 C.3     1  LIG1       -0.0422
     20 C          -1.3369    8.6272   -1.2107 C.3     1  LIG1        0.0245
     21 N          -2.1181    1.8994    0.0331 N.1     1  LIG1       -0.3814
     22 N           2.4760    0.4179   -0.0198 N.ar    1  LIG1       -0.3522
     23 N           0.3600   -0.6370   -0.0072 N.pl3   1  LIG1       -0.3650
     24 O          -1.0586    8.0283    0.0541 O.3     1  LIG1       -0.4169
     25 H           4.9099    2.4426   -1.9005 H       1  LIG1        0.1411
     26 H           4.6771    0.2808    1.8276 H       1  LIG1        0.1314
     27 H           0.5629    4.4116   -2.1381 H       1  LIG1        0.1381
     28 H           0.6015    4.3878    2.1773 H       1  LIG1        0.1363
     29 H           7.3497    2.1339   -1.9224 H       1  LIG1        0.1181
     30 H           7.1176   -0.0242    1.7985 H       1  LIG1        0.1187
     31 H          -0.4515    6.6547   -2.1110 H       1  LIG1        0.1158
     32 H          -0.4131    6.6311    2.1931 H       1  LIG1        0.1314
     33 H           3.2612    3.7179   -0.0084 H       1  LIG1        0.1316
     34 H           9.3692    1.6817    0.4345 H       1  LIG1        0.0532
     35 H           9.1634   -0.0871    0.4166 H       1  LIG1        0.0571
     36 H           9.2584    0.7955   -1.1063 H       1  LIG1        0.0571
     37 H          -1.7817    9.6136   -1.0577 H       1  LIG1        0.1230
     38 H          -2.0233    7.9896   -1.7736 H       1  LIG1        0.0903
     39 H          -0.4027    8.7336   -1.7670 H       1  LIG1        0.0898
     40 H          -0.6321   -0.5665    0.0499 H       1  LIG1        0.2927
     41 H           0.8312   -1.5139    0.0311 H       1  LIG1        0.2907
@<TRIPOS>BOND
     1     1    11    1
     2     1    21    3
     3     2     6   ar
     4     2    13   ar
     5     3     7   ar
     6     3    13   ar
     7     4     8   ar
     8     4    12   ar
     9     5     9   ar
    10     5    12   ar
    11     6    15   ar
    12     7    15   ar
    13     8    16   ar
    14     9    16   ar
    15    10    14   ar
    16    10    17   ar
    17    11    14   ar
    18    11    18   ar
    19    12    14    1
    20    13    17    1
    21    15    19    1
    22    16    24    1
    23    17    22   ar
    24    18    22   ar
    25    18    23    1
    26    20    24    1
    27     2    25    1
    28     3    26    1
    29     4    27    1
    30     5    28    1
    31     6    29    1
    32     7    30    1
    33     8    31    1
    34     9    32    1
    35    10    33    1
    36    19    34    1
    37    19    35    1
    38    19    36    1
    39    20    37    1
    40    20    38    1
    41    20    39    1
    42    23    40    1
    43    23    41    1
