@<TRIPOS>MOLECULE
AO-365/43400596
 34 37 0 0 0
SMALL
USER_CHARGES

@<TRIPOS>ATOM
      1 C           0.5008    6.4636    1.0788 C.ar    1  LIG1       -0.0779
      2 C           0.5903    5.0717    1.0690 C.ar    1  LIG1       -0.0527
      3 C           5.3492    0.1892    0.3629 C.ar    1  LIG1       -0.0542
      4 C           5.4870    2.4602   -0.4499 C.ar    1  LIG1       -0.0604
      5 C           6.7411    0.1000    0.3499 C.ar    1  LIG1       -0.0408
      6 C           6.8790    2.3711   -0.4628 C.ar    1  LIG1       -0.0522
      7 C          -0.1559    7.1275    0.0426 C.ar    1  LIG1       -0.0747
      8 C          -0.6332    5.0075   -1.0132 C.ar    1  LIG1       -0.0435
      9 C           0.0234    4.3436    0.0230 C.ar    1  LIG1        0.0170
     10 C           4.7221    1.3692   -0.0371 C.ar    1  LIG1        0.0056
     11 C           7.5060    1.1910   -0.0629 C.ar    1  LIG1       -0.0020
     12 C          -0.7227    6.3995   -1.0034 C.ar    1  LIG1       -0.0300
     13 C           0.1159    2.9039    0.0133 C.ar    1  LIG1        0.1122
     14 C           0.9372    0.9108   -0.0061 C.ar    1  LIG1        0.1545
     15 C           3.2791    1.4619   -0.0234 C.ar    1  LIG1        0.1235
     16 C           9.4400   -0.1315    0.3451 C.3     1  LIG1        0.0280
     17 N          -0.8876    2.0418    0.0164 N.ar    1  LIG1       -0.2282
     18 N          -0.3547    0.7521    0.0038 N.ar    1  LIG1       -0.2353
     19 N           2.5842    2.5722   -0.0100 N.ar    1  LIG1       -0.2767
     20 N           1.2839    2.2136   -0.0011 N.ar    1  LIG1       -0.2246
     21 O           8.8642    1.1042   -0.0759 O.3     1  LIG1       -0.4107
     22 S           2.3347   -0.0650   -0.0241 S.2     1  LIG1        0.0521
     23 BR         -1.6108    7.3007   -2.4077 Br      1  LIG1       -0.1060
     24 H           0.9423    7.0307    1.8932 H       1  LIG1        0.1385
     25 H           1.1046    4.5686    1.8849 H       1  LIG1        0.1550
     26 H           4.7635   -0.6674    0.6869 H       1  LIG1        0.1534
     27 H           5.0080    3.3843   -0.7631 H       1  LIG1        0.1557
     28 H           7.2237   -0.8220    0.6624 H       1  LIG1        0.1432
     29 H           7.4696    3.2241   -0.7857 H       1  LIG1        0.1245
     30 H          -0.2167    8.2125    0.0652 H       1  LIG1        0.1433
     31 H          -1.0750    4.4385   -1.8289 H       1  LIG1        0.1519
     32 H          10.5292   -0.0654    0.2865 H       1  LIG1        0.1259
     33 H           9.0783   -0.9400   -0.2952 H       1  LIG1        0.0927
     34 H           9.1443   -0.3276    1.3784 H       1  LIG1        0.0927
@<TRIPOS>BOND
     1     1     2   ar
     2     1     7   ar
     3     2     9   ar
     4     3     5   ar
     5     3    10   ar
     6     4     6   ar
     7     4    10   ar
     8     5    11   ar
     9     6    11   ar
    10     7    12   ar
    11     8     9   ar
    12     8    12   ar
    13     9    13    1
    14    10    15    1
    15    11    21    1
    16    12    23    1
    17    13    17   ar
    18    13    20   ar
    19    14    18   ar
    20    14    20   ar
    21    14    22   ar
    22    15    19   ar
    23    15    22   ar
    24    16    21    1
    25    17    18   ar
    26    19    20   ar
    27     1    24    1
    28     2    25    1
    29     3    26    1
    30     4    27    1
    31     5    28    1
    32     6    29    1
    33     7    30    1
    34     8    31    1
    35    16    32    1
    36    16    33    1
    37    16    34    1
