@<TRIPOS>MOLECULE
AO-476/43362682
 42 44 0 0 0
SMALL
USER_CHARGES

@<TRIPOS>ATOM
      1 C           6.6576    0.6017    0.9864 C.ar    1  LIG1       -0.0868
      2 C           1.3265    5.8616    0.6248 C.ar    1  LIG1       -0.0684
      3 C          -0.3641    4.6198   -0.5737 C.ar    1  LIG1       -0.0644
      4 C           5.3310    1.0324    1.0017 C.ar    1  LIG1       -0.0583
      5 C           7.4979    0.9682   -0.0649 C.ar    1  LIG1       -0.0628
      6 C           0.4951    6.9814    0.6375 C.ar    1  LIG1       -0.0461
      7 C          -1.1957    5.7396   -0.5609 C.ar    1  LIG1       -0.0440
      8 C           5.6849    2.1960   -1.0859 C.ar    1  LIG1       -0.0165
      9 C           3.1274    3.5698   -0.0065 C.ar    1  LIG1       -0.0117
     10 C           0.8971    4.6807    0.0192 C.ar    1  LIG1       -0.0403
     11 C           4.8446    1.8295   -0.0346 C.ar    1  LIG1       -0.0183
     12 C           7.0115    1.7653   -1.1010 C.ar    1  LIG1       -0.0009
     13 C          -0.7660    6.9204    0.0447 C.ar    1  LIG1        0.0599
     14 C           1.7532    3.5279    0.0058 C.ar    1  LIG1       -0.0128
     15 C           2.3839    1.4952   -0.0151 C.ar    1  LIG1        0.0636
     16 C           0.3791   -2.1022   -0.0068 C.2     1  LIG1        0.0646
     17 C          -1.0634   -2.4902    0.0004 C.3     1  LIG1        0.0300
     18 C           9.1762    1.6475   -2.0790 C.3     1  LIG1        0.0257
     19 C           0.6330   -0.6137   -0.0036 C.3     1  LIG1        0.1014
     20 N           1.2966    2.2337    0.0008 N.ar    1  LIG1       -0.3709
     21 N           3.5171    2.2602   -0.0194 N.ar    1  LIG1       -0.3080
     22 O           1.2378   -2.9743   -0.0169 O.2     1  LIG1       -0.4660
     23 O           7.8318    2.1227   -2.1268 O.3     1  LIG1       -0.4141
     24 F          -1.5645    7.9958    0.0569 F       1  LIG1       -0.2717
     25 S           2.4086   -0.2372   -0.0227 S.3     1  LIG1       -0.0669
     26 H           7.0365   -0.0191    1.7930 H       1  LIG1        0.1408
     27 H           2.3071    5.9255    1.0907 H       1  LIG1        0.1367
     28 H          -0.7140    3.7066   -1.0496 H       1  LIG1        0.1455
     29 H           4.6867    0.7392    1.8267 H       1  LIG1        0.1331
     30 H           8.5304    0.6292   -0.0704 H       1  LIG1        0.1211
     31 H           0.8297    7.9010    1.1084 H       1  LIG1        0.1320
     32 H          -2.1778    5.6929   -1.0221 H       1  LIG1        0.1316
     33 H           5.3129    2.8171   -1.8979 H       1  LIG1        0.1451
     34 H           3.8344    4.3895   -0.0106 H       1  LIG1        0.2018
     35 H          -1.4766   -2.5965   -1.0149 H       1  LIG1        0.0766
     36 H          -1.2367   -3.4596    0.4933 H       1  LIG1        0.0785
     37 H          -1.7249   -1.7755    0.5144 H       1  LIG1        0.0844
     38 H           9.7212    2.0050   -2.9560 H       1  LIG1        0.1242
     39 H           9.1768    0.5548   -2.0567 H       1  LIG1        0.0912
     40 H           9.6559    2.0286   -1.1743 H       1  LIG1        0.0915
     41 H           0.1892   -0.1768    0.8955 H       1  LIG1        0.1195
     42 H           0.1691   -0.1721   -0.8900 H       1  LIG1        0.1301
@<TRIPOS>BOND
     1     1     4   ar
     2     1     5   ar
     3     2     6   ar
     4     2    10   ar
     5     3     7   ar
     6     3    10   ar
     7     4    11   ar
     8     5    12   ar
     9     6    13   ar
    10     7    13   ar
    11     8    11   ar
    12     8    12   ar
    13     9    14   ar
    14     9    21   ar
    15    10    14    1
    16    11    21    1
    17    12    23    1
    18    13    24    1
    19    14    20   ar
    20    15    20   ar
    21    15    21   ar
    22    15    25    1
    23    16    17    1
    24    16    19    1
    25    16    22    2
    26    18    23    1
    27    19    25    1
    28     1    26    1
    29     2    27    1
    30     3    28    1
    31     4    29    1
    32     5    30    1
    33     6    31    1
    34     7    32    1
    35     8    33    1
    36     9    34    1
    37    17    35    1
    38    17    36    1
    39    17    37    1
    40    18    38    1
    41    18    39    1
    42    18    40    1
    43    19    41    1
    44    19    42    1
