@<TRIPOS>MOLECULE
AO-365/43113753
 34 37 0 0 0
SMALL
USER_CHARGES

@<TRIPOS>ATOM
      1 C           0.9808    6.4581    0.6391 C.ar    1  LIG1       -0.0843
      2 C          -0.0958    7.1278    0.0577 C.ar    1  LIG1       -0.0868
      3 C           1.0310    5.0643    0.6141 C.ar    1  LIG1       -0.0558
      4 C           5.3435    0.2007    0.3706 C.ar    1  LIG1       -0.0542
      5 C           5.4739    2.4669   -0.4569 C.ar    1  LIG1       -0.0606
      6 C           6.7357    0.1157    0.3572 C.ar    1  LIG1       -0.0410
      7 C           6.8661    2.3819   -0.4702 C.ar    1  LIG1       -0.0526
      8 C          -1.1221    6.4037   -0.5489 C.ar    1  LIG1       -0.0683
      9 C           0.0047    4.3402    0.0076 C.ar    1  LIG1        0.0270
     10 C           4.7127    1.3763   -0.0365 C.ar    1  LIG1        0.0053
     11 C           7.4971    1.2063   -0.0632 C.ar    1  LIG1       -0.0023
     12 C          -1.0719    5.0099   -0.5739 C.ar    1  LIG1        0.0018
     13 C           0.1018    2.8971    0.0070 C.ar    1  LIG1        0.1184
     14 C           0.9292    0.9066   -0.0000 C.ar    1  LIG1        0.1551
     15 C           3.2694    1.4647   -0.0225 C.ar    1  LIG1        0.1231
     16 C           9.4353   -0.1077    0.3521 C.3     1  LIG1        0.0278
     17 N          -0.8991    2.0322    0.0164 N.ar    1  LIG1       -0.2202
     18 N          -0.3623    0.7441    0.0119 N.ar    1  LIG1       -0.2310
     19 N           2.5711    2.5729   -0.0158 N.ar    1  LIG1       -0.2751
     20 N           1.2719    2.2105   -0.0037 N.ar    1  LIG1       -0.2231
     21 O           8.8555    1.1236   -0.0765 O.3     1  LIG1       -0.4106
     22 S           2.3295   -0.0650   -0.0127 S.2     1  LIG1        0.0504
     23 BR         -2.5047    4.0883   -1.4172 Br      1  LIG1       -0.0816
     24 H           1.7799    7.0221    1.1114 H       1  LIG1        0.1337
     25 H          -0.1347    8.2129    0.0774 H       1  LIG1        0.1367
     26 H           1.8783    4.5594    1.0727 H       1  LIG1        0.1400
     27 H           4.7607   -0.6554    0.7004 H       1  LIG1        0.1533
     28 H           4.9919    3.3875   -0.7758 H       1  LIG1        0.1553
     29 H           7.2213   -0.8028    0.6754 H       1  LIG1        0.1431
     30 H           7.4540    3.2346   -0.7991 H       1  LIG1        0.1239
     31 H          -1.9524    6.9443   -0.9964 H       1  LIG1        0.1422
     32 H          10.5242   -0.0388    0.2923 H       1  LIG1        0.0926
     33 H           9.0757   -0.9214   -0.2827 H       1  LIG1        0.0926
     34 H           9.1408   -0.2980    1.3869 H       1  LIG1        0.1253
@<TRIPOS>BOND
     1     1     2   ar
     2     1     3   ar
     3     2     8   ar
     4     3     9   ar
     5     4     6   ar
     6     4    10   ar
     7     5     7   ar
     8     5    10   ar
     9     6    11   ar
    10     7    11   ar
    11     8    12   ar
    12     9    12   ar
    13     9    13    1
    14    10    15    1
    15    11    21    1
    16    12    23    1
    17    13    17   ar
    18    13    20   ar
    19    14    18   ar
    20    14    20   ar
    21    14    22   ar
    22    15    19   ar
    23    15    22   ar
    24    16    21    1
    25    17    18   ar
    26    19    20   ar
    27     1    24    1
    28     2    25    1
    29     3    26    1
    30     4    27    1
    31     5    28    1
    32     6    29    1
    33     7    30    1
    34     8    31    1
    35    16    32    1
    36    16    33    1
    37    16    34    1
