@<TRIPOS>MOLECULE
AO-476/15578132
 41 44 0 0 0
SMALL
USER_CHARGES

@<TRIPOS>ATOM
      1 C          -0.3782    6.6866    0.0404 C.ar    1  LIG1       -0.1040
      2 C          -0.1137    6.0523   -1.1733 C.ar    1  LIG1       -0.0988
      3 C          -0.0914    6.0398    1.2425 C.ar    1  LIG1       -0.1010
      4 C           0.4377    4.7710   -1.1849 C.ar    1  LIG1       -0.0866
      5 C           0.4600    4.7586    1.2309 C.ar    1  LIG1       -0.0901
      6 C           5.4502    1.8840   -1.0862 C.ar    1  LIG1       -0.0698
      7 C           5.3471    0.6710    1.0007 C.ar    1  LIG1       -0.0668
      8 C           6.8377    1.7416   -1.1004 C.ar    1  LIG1       -0.0613
      9 C           6.7347    0.5287    0.9864 C.ar    1  LIG1       -0.0523
     10 C           2.6821    2.7436   -0.0085 C.ar    1  LIG1       -0.0243
     11 C          -0.8016   -0.6955    0.0041 C.ar    1  LIG1        0.0441
     12 C           0.5663    1.5935    0.0049 C.ar    1  LIG1        0.0622
     13 C           0.7245    4.1242    0.0172 C.ar    1  LIG1       -0.0673
     14 C           4.7050    1.3487   -0.0356 C.ar    1  LIG1       -0.0237
     15 C           1.2991    2.7895    0.0046 C.ar    1  LIG1       -0.0341
     16 C           7.4799    1.0638   -0.0641 C.ar    1  LIG1       -0.0117
     17 C           3.2687    1.4960   -0.0208 C.ar    1  LIG1        0.0073
     18 C           1.2386    0.3658   -0.0087 C.ar    1  LIG1        0.0551
     19 C          -0.8258    1.5581    0.0180 C.ar    1  LIG1        0.0059
     20 C           9.4257    0.2204    1.0121 C.3     1  LIG1        0.0250
     21 N           0.5454   -0.7783   -0.0091 N.ar    1  LIG1       -0.3290
     22 N          -1.5423    0.4216    0.0181 N.ar    1  LIG1       -0.3429
     23 N           2.5781    0.3303   -0.0212 N.ar    1  LIG1       -0.3309
     24 N          -1.6003    2.7388    0.0319 N.pl3   1  LIG1       -0.3667
     25 O           8.8336    0.9245   -0.0786 O.3     1  LIG1       -0.4156
     26 H          -0.8060    7.6849    0.0492 H       1  LIG1        0.1222
     27 H          -0.3354    6.5564   -2.1094 H       1  LIG1        0.1195
     28 H          -0.2959    6.5337    2.1879 H       1  LIG1        0.1203
     29 H           0.6384    4.2899   -2.1394 H       1  LIG1        0.1309
     30 H           0.6788    4.2671    2.1759 H       1  LIG1        0.1269
     31 H           4.9640    2.4148   -1.9012 H       1  LIG1        0.1527
     32 H           4.7802    0.2482    1.8266 H       1  LIG1        0.1439
     33 H           7.4129    2.1605   -1.9217 H       1  LIG1        0.1154
     34 H           7.2295   -0.0005    1.7963 H       1  LIG1        0.1316
     35 H           3.2856    3.6469   -0.0095 H       1  LIG1        0.1441
     36 H          -1.3407   -1.6350    0.0045 H       1  LIG1        0.3073
     37 H          10.5093    0.1817    0.8765 H       1  LIG1        0.1226
     38 H           9.0171   -0.7922    1.0581 H       1  LIG1        0.0906
     39 H           9.1958    0.7465    1.9416 H       1  LIG1        0.0906
     40 H          -1.1378    3.6231    0.0801 H       1  LIG1        0.2822
     41 H          -2.5952    2.6667    0.0886 H       1  LIG1        0.2766
@<TRIPOS>BOND
     1     1     2   ar
     2     1     3   ar
     3     2     4   ar
     4     3     5   ar
     5     4    13   ar
     6     5    13   ar
     7     6     8   ar
     8     6    14   ar
     9     7     9   ar
    10     7    14   ar
    11     8    16   ar
    12     9    16   ar
    13    10    15   ar
    14    10    17   ar
    15    11    21   ar
    16    11    22   ar
    17    12    15   ar
    18    12    18   ar
    19    12    19   ar
    20    13    15    1
    21    14    17    1
    22    16    25    1
    23    17    23   ar
    24    18    21   ar
    25    18    23   ar
    26    19    22   ar
    27    19    24    1
    28    20    25    1
    29     1    26    1
    30     2    27    1
    31     3    28    1
    32     4    29    1
    33     5    30    1
    34     6    31    1
    35     7    32    1
    36     8    33    1
    37     9    34    1
    38    10    35    1
    39    11    36    1
    40    20    37    1
    41    20    38    1
    42    20    39    1
    43    24    40    1
    44    24    41    1
