@<TRIPOS>MOLECULE
AK-820/13220581
 51 55 0 0 0
SMALL
USER_CHARGES

@<TRIPOS>ATOM
      1 C          -1.0636   -3.0356   -0.0062 C.ar    1  LIG1       -0.1054
      2 C          -1.2267   -2.1209   -1.0464 C.ar    1  LIG1       -0.1017
      3 C          -0.1757   -2.7588    1.0335 C.ar    1  LIG1       -0.0987
      4 C          -0.5018   -0.9292   -1.0472 C.ar    1  LIG1       -0.0821
      5 C           0.5491   -1.5670    1.0326 C.ar    1  LIG1       -0.0766
      6 C           5.4049    1.8845   -1.0857 C.ar    1  LIG1       -0.0617
      7 C          -0.5954    4.4446   -0.5743 C.ar    1  LIG1       -0.0879
      8 C           1.3042    5.3372    0.6222 C.ar    1  LIG1       -0.0780
      9 C           6.7884    1.7033   -1.1006 C.ar    1  LIG1       -0.0408
     10 C          -1.1956    5.7036   -0.5609 C.ar    1  LIG1       -0.0671
     11 C           0.7041    6.5963    0.6356 C.ar    1  LIG1       -0.0543
     12 C           5.2631    0.6829    1.0075 C.ar    1  LIG1       -0.0341
     13 C           0.4918    1.8081    0.0030 C.ar    1  LIG1       -0.0409
     14 C           2.6629    2.8430   -0.0079 C.ar    1  LIG1       -0.0399
     15 C           0.6545    4.2613    0.0173 C.ar    1  LIG1       -0.0713
     16 C           0.3861   -0.6522   -0.0077 C.ar    1  LIG1       -0.0382
     17 C           4.6434    1.3746   -0.0334 C.ar    1  LIG1       -0.0233
     18 C           1.2771    2.9556    0.0033 C.ar    1  LIG1       -0.0628
     19 C           6.6461    0.4929    0.9839 C.ar    1  LIG1       -0.0101
     20 C           7.4078    0.9979   -0.0686 C.ar    1  LIG1        0.0303
     21 C          -0.5458    6.7795    0.0441 C.ar    1  LIG1       -0.0132
     22 C           1.1361    0.5815   -0.0087 C.ar    1  LIG1       -0.0130
     23 C           3.2099    1.5701   -0.0190 C.ar    1  LIG1       -0.0097
     24 C           8.6223   -0.4484    2.0197 C.2     1  LIG1        0.1215
     25 C           9.2946   -0.1487    0.6909 C.3     1  LIG1        0.1397
     26 C          -2.4094    8.1247   -0.5670 C.3     1  LIG1        0.0243
     27 N           2.4796    0.4323   -0.0198 N.ar    1  LIG1       -0.3731
     28 N           7.2754   -0.1690    2.0432 N.am    1  LIG1       -0.3066
     29 O           9.2308   -0.9667    2.9536 O.2     1  LIG1       -0.4721
     30 O           8.7696    0.8918   -0.1109 O.3     1  LIG1       -0.3773
     31 O          -1.1313    8.0080    0.0565 O.3     1  LIG1       -0.4171
     32 H          -1.6293   -3.9627   -0.0049 H       1  LIG1        0.1184
     33 H          -1.9192   -2.3356   -1.8550 H       1  LIG1        0.1179
     34 H          -0.0493   -3.4699    1.8444 H       1  LIG1        0.1176
     35 H          -0.6402   -0.2260   -1.8652 H       1  LIG1        0.1247
     36 H           1.2371   -1.3645    1.8501 H       1  LIG1        0.1363
     37 H           4.9349    2.4312   -1.8999 H       1  LIG1        0.1408
     38 H          -1.1144    3.6157   -1.0499 H       1  LIG1        0.1334
     39 H           2.2788    5.2105    1.0875 H       1  LIG1        0.1399
     40 H           7.3749    2.1135   -1.9182 H       1  LIG1        0.1479
     41 H          -2.1692    5.8403   -1.0235 H       1  LIG1        0.1147
     42 H           1.2150    7.4308    1.1081 H       1  LIG1        0.1320
     43 H           4.6740    0.2930    1.8352 H       1  LIG1        0.1556
     44 H          -0.5930    1.8713    0.0128 H       1  LIG1        0.1360
     45 H           3.2963    3.7258   -0.0091 H       1  LIG1        0.1381
     46 H          10.3388    0.1072    0.9026 H       1  LIG1        0.1622
     47 H           9.2981   -1.0739    0.1018 H       1  LIG1        0.1954
     48 H          -2.7623    9.1556   -0.4858 H       1  LIG1        0.0899
     49 H          -3.1160    7.4471   -0.0812 H       1  LIG1        0.1228
     50 H          -2.3161    7.8559   -1.6218 H       1  LIG1        0.0899
     51 H           6.7238   -0.4326    2.8542 H       1  LIG1        0.3282
@<TRIPOS>BOND
     1     1     2   ar
     2     1     3   ar
     3     2     4   ar
     4     3     5   ar
     5     4    16   ar
     6     5    16   ar
     7     6     9   ar
     8     6    17   ar
     9     7    10   ar
    10     7    15   ar
    11     8    11   ar
    12     8    15   ar
    13     9    20   ar
    14    10    21   ar
    15    11    21   ar
    16    12    17   ar
    17    12    19   ar
    18    13    18   ar
    19    13    22   ar
    20    14    18   ar
    21    14    23   ar
    22    15    18    1
    23    16    22    1
    24    17    23    1
    25    19    20   ar
    26    19    28    1
    27    20    30    1
    28    21    31    1
    29    22    27   ar
    30    23    27   ar
    31    24    25    1
    32    24    28   am
    33    24    29    2
    34    25    30    1
    35    26    31    1
    36     1    32    1
    37     2    33    1
    38     3    34    1
    39     4    35    1
    40     5    36    1
    41     6    37    1
    42     7    38    1
    43     8    39    1
    44     9    40    1
    45    10    41    1
    46    11    42    1
    47    12    43    1
    48    13    44    1
    49    14    45    1
    50    25    46    1
    51    25    47    1
    52    26    48    1
    53    26    49    1
    54    26    50    1
    55    28    51    1
