@<TRIPOS>MOLECULE
AN-689/41741336
 39 41 0 0 0
SMALL
USER_CHARGES

@<TRIPOS>ATOM
      1 C           5.3335    0.9976    1.0057 C.ar    1  LIG1       -0.0463
      2 C           5.7569    2.0186   -1.1426 C.ar    1  LIG1       -0.0529
      3 C          -0.1915    4.8100   -1.0010 C.ar    1  LIG1       -0.0337
      4 C           0.8990    5.5642    1.0187 C.ar    1  LIG1       -0.0364
      5 C           6.6467    0.5286    1.0416 C.ar    1  LIG1       -0.0385
      6 C           7.0701    1.5497   -1.1067 C.ar    1  LIG1       -0.0491
      7 C          -1.0680    5.8929   -0.9322 C.ar    1  LIG1        0.0189
      8 C           0.0226    6.6471    1.0875 C.ar    1  LIG1        0.0169
      9 C           4.8886    1.7425   -0.0865 C.ar    1  LIG1       -0.0022
     10 C           0.7920    4.6456   -0.0256 C.ar    1  LIG1        0.0099
     11 C           7.5150    0.8047   -0.0145 C.ar    1  LIG1       -0.0015
     12 C          -0.9609    6.8115    0.1121 C.ar    1  LIG1        0.2993
     13 C           2.4686    1.3727   -0.0852 C.2     1  LIG1        0.3139
     14 C           1.2442    2.2403   -0.0674 C.2     1  LIG1        0.3138
     15 C           3.0993    3.5631   -0.2049 C.2     1  LIG1        0.0817
     16 C           9.1851   -0.4081    1.1668 C.3     1  LIG1        0.0270
     17 N           3.5441    2.2227   -0.1234 N.am    1  LIG1       -0.2011
     18 N           1.6892    3.5370   -0.0959 N.am    1  LIG1       -0.1949
     19 N          -3.0202    7.8957   -1.1875 N.3     1  LIG1       -0.1563
     20 O           2.3630    0.1642   -0.0201 O.2     1  LIG1       -0.3494
     21 O           0.1402    1.7396    0.0118 O.2     1  LIG1       -0.3503
     22 O          -2.8886    8.0107    1.3845 O.2     1  LIG1       -0.0810
     23 O          -1.2958    9.3923    0.0055 O.2     1  LIG1       -0.0810
     24 O           8.7964    0.3472    0.0205 O.3     1  LIG1       -0.4115
     25 S           4.0454    4.9071   -0.5818 S.2     1  LIG1       -0.1876
     26 S          -2.0583    8.1667    0.1984 S.O2    1  LIG1       -0.0623
     27 H           4.6655    0.7766    1.8343 H       1  LIG1        0.1521
     28 H           5.4212    2.5982   -1.9989 H       1  LIG1        0.1515
     29 H          -0.2842    4.1002   -1.8192 H       1  LIG1        0.1534
     30 H           1.6617    5.4462    1.7843 H       1  LIG1        0.1488
     31 H           6.9875   -0.0512    1.8951 H       1  LIG1        0.1440
     32 H           7.7418    1.7680   -1.9325 H       1  LIG1        0.1277
     33 H          -1.8306    6.0114   -1.6972 H       1  LIG1        0.1683
     34 H           0.1148    7.3569    1.9053 H       1  LIG1        0.1675
     35 H          10.2301   -0.7115    1.0670 H       1  LIG1        0.0925
     36 H           8.5456   -1.2898    1.2574 H       1  LIG1        0.0915
     37 H           9.0723    0.2144    2.0577 H       1  LIG1        0.1247
     38 H          -3.9888    7.5833   -1.0482 H       1  LIG1        0.3206
     39 H          -2.8985    8.5261   -1.9894 H       1  LIG1        0.3243
@<TRIPOS>BOND
     1     1     5   ar
     2     1     9   ar
     3     2     6   ar
     4     2     9   ar
     5     3     7   ar
     6     3    10   ar
     7     4     8   ar
     8     4    10   ar
     9     5    11   ar
    10     6    11   ar
    11     7    12   ar
    12     8    12   ar
    13     9    17    1
    14    10    18    1
    15    11    24    1
    16    12    26    1
    17    13    14    1
    18    13    17   am
    19    13    20    2
    20    14    18   am
    21    14    21    2
    22    15    17    1
    23    15    18    1
    24    15    25    2
    25    16    24    1
    26    19    26    1
    27    22    26    2
    28    23    26    2
    29     1    27    1
    30     2    28    1
    31     3    29    1
    32     4    30    1
    33     5    31    1
    34     6    32    1
    35     7    33    1
    36     8    34    1
    37    16    35    1
    38    16    36    1
    39    16    37    1
    40    19    38    1
    41    19    39    1
