@<TRIPOS>MOLECULE
AO-365/43113663
 37 40 0 0 0
SMALL
USER_CHARGES

@<TRIPOS>ATOM
      1 C           1.0279    6.4506    0.6325 C.ar    1  LIG1       -0.0787
      2 C           1.0777    5.0568    0.6240 C.ar    1  LIG1       -0.0544
      3 C           5.2588    0.0228    0.3679 C.ar    1  LIG1       -0.0541
      4 C           5.4612    2.2886   -0.4455 C.ar    1  LIG1       -0.0604
      5 C           6.6476   -0.1057    0.3558 C.ar    1  LIG1       -0.0403
      6 C           6.8501    2.1603   -0.4576 C.ar    1  LIG1       -0.0518
      7 C          -0.0470    7.1138    0.0405 C.ar    1  LIG1       -0.0669
      8 C          -1.0223    4.9890   -0.5687 C.ar    1  LIG1       -0.0359
      9 C           0.0526    4.3258    0.0234 C.ar    1  LIG1        0.0161
     10 C           4.6654    1.2199   -0.0328 C.ar    1  LIG1        0.0056
     11 C           7.4433    0.9630   -0.0570 C.ar    1  LIG1       -0.0002
     12 C          -1.0721    6.3830   -0.5601 C.ar    1  LIG1       -0.0049
     13 C           0.1044    2.8840    0.0141 C.ar    1  LIG1        0.1124
     14 C           0.8692    0.8686   -0.0041 C.ar    1  LIG1        0.1545
     15 C           3.2257    1.3534   -0.0202 C.ar    1  LIG1        0.1234
     16 C           9.0331    0.4520    2.2827 C.3     1  LIG1       -0.0337
     17 C           9.3781   -0.0413    0.8936 C.3     1  LIG1        0.0175
     18 N          -0.9230    2.0507    0.0170 N.ar    1  LIG1       -0.2279
     19 N          -0.4267    0.7465    0.0052 N.ar    1  LIG1       -0.2353
     20 N           2.5625    2.4828   -0.0075 N.ar    1  LIG1       -0.2767
     21 N           1.2525    2.1611    0.0008 N.ar    1  LIG1       -0.2244
     22 O           8.7985    0.8380   -0.0691 O.3     1  LIG1       -0.4100
     23 S           2.2385   -0.1463   -0.0208 S.2     1  LIG1        0.0519
     24 CL         -2.3971    7.2027   -1.2912 Cl      1  LIG1       -0.1387
     25 H           1.8256    7.0200    1.1006 H       1  LIG1        0.1392
     26 H           1.9220    4.5542    1.0902 H       1  LIG1        0.1524
     27 H           4.6490   -0.8168    0.6918 H       1  LIG1        0.1534
     28 H           5.0086    3.2259   -0.7594 H       1  LIG1        0.1556
     29 H           7.1037   -1.0409    0.6689 H       1  LIG1        0.1431
     30 H           7.4647    2.9962   -0.7805 H       1  LIG1        0.1237
     31 H          -0.0728    8.2004    0.0548 H       1  LIG1        0.1418
     32 H          -1.8226    4.4198   -1.0380 H       1  LIG1        0.1499
     33 H           9.4266    1.4588    2.4481 H       1  LIG1        0.0588
     34 H           7.9480    0.4682    2.4282 H       1  LIG1        0.0491
     35 H           9.4463   -0.2183    3.0437 H       1  LIG1        0.0491
     36 H           8.9816   -1.0485    0.7346 H       1  LIG1        0.0983
     37 H          10.4625   -0.0561    0.7497 H       1  LIG1        0.0983
@<TRIPOS>BOND
     1     1     2   ar
     2     1     7   ar
     3     2     9   ar
     4     3     5   ar
     5     3    10   ar
     6     4     6   ar
     7     4    10   ar
     8     5    11   ar
     9     6    11   ar
    10     7    12   ar
    11     8     9   ar
    12     8    12   ar
    13     9    13    1
    14    10    15    1
    15    11    22    1
    16    12    24    1
    17    13    18   ar
    18    13    21   ar
    19    14    19   ar
    20    14    21   ar
    21    14    23   ar
    22    15    20   ar
    23    15    23   ar
    24    16    17    1
    25    17    22    1
    26    18    19   ar
    27    20    21   ar
    28     1    25    1
    29     2    26    1
    30     3    27    1
    31     4    28    1
    32     5    29    1
    33     6    30    1
    34     7    31    1
    35     8    32    1
    36    16    33    1
    37    16    34    1
    38    16    35    1
    39    17    36    1
    40    17    37    1
