@<TRIPOS>MOLECULE
AO-365/43301310
 40 43 0 0 0
SMALL
USER_CHARGES

@<TRIPOS>ATOM
      1 C           1.0283    6.4499    0.6328 C.ar    1  LIG1       -0.0941
      2 C           1.0772    5.0559    0.6249 C.ar    1  LIG1       -0.0679
      3 C           5.2586    0.0235    0.3683 C.ar    1  LIG1       -0.0542
      4 C           5.4608    2.2896   -0.4448 C.ar    1  LIG1       -0.0607
      5 C          -0.0459    7.1135    0.0400 C.ar    1  LIG1       -0.0985
      6 C           6.6475   -0.1048    0.3563 C.ar    1  LIG1       -0.0405
      7 C           6.8497    2.1613   -0.4568 C.ar    1  LIG1       -0.0522
      8 C          -1.0222    4.9892   -0.5690 C.ar    1  LIG1       -0.0618
      9 C           0.0520    4.3255    0.0238 C.ar    1  LIG1        0.0071
     10 C           4.6653    1.2206   -0.0323 C.ar    1  LIG1        0.0051
     11 C          -1.0711    6.3832   -0.5610 C.ar    1  LIG1       -0.1041
     12 C           7.4432    0.9641   -0.0562 C.ar    1  LIG1       -0.0006
     13 C           0.1040    2.8841    0.0145 C.ar    1  LIG1        0.1095
     14 C           0.8690    0.8688   -0.0039 C.ar    1  LIG1        0.1522
     15 C           3.2255    1.3539   -0.0198 C.ar    1  LIG1        0.1223
     16 C          -2.2184    7.0933   -1.1963 C.3     1  LIG1       -0.0406
     17 C           9.0328    0.4530    2.2834 C.3     1  LIG1       -0.0337
     18 C           9.3779   -0.0400    0.8944 C.3     1  LIG1        0.0173
     19 N          -0.9233    2.0506    0.0170 N.ar    1  LIG1       -0.2303
     20 N          -0.4269    0.7465    0.0052 N.ar    1  LIG1       -0.2378
     21 N           2.5621    2.4832   -0.0071 N.ar    1  LIG1       -0.2765
     22 N           1.2522    2.1613    0.0011 N.ar    1  LIG1       -0.2248
     23 O           8.7984    0.8393   -0.0683 O.3     1  LIG1       -0.4102
     24 S           2.2385   -0.1459   -0.0208 S.2     1  LIG1        0.0490
     25 H           1.8259    7.0191    1.1011 H       1  LIG1        0.1233
     26 H           1.9212    4.5537    1.0917 H       1  LIG1        0.1326
     27 H           4.6490   -0.8161    0.6920 H       1  LIG1        0.1532
     28 H           5.0082    3.2267   -0.7586 H       1  LIG1        0.1551
     29 H          -0.0756    8.1997    0.0511 H       1  LIG1        0.1259
     30 H           7.1038   -1.0399    0.6693 H       1  LIG1        0.1429
     31 H           7.4643    2.9974   -0.7795 H       1  LIG1        0.1235
     32 H          -1.8248    4.4253   -1.0402 H       1  LIG1        0.1448
     33 H          -2.0040    7.2968   -2.2526 H       1  LIG1        0.0587
     34 H          -3.1383    6.4972   -1.1367 H       1  LIG1        0.0566
     35 H          -2.4248    8.0469   -0.6930 H       1  LIG1        0.0559
     36 H           9.4262    1.4598    2.4490 H       1  LIG1        0.0587
     37 H           7.9477    0.4690    2.4288 H       1  LIG1        0.0491
     38 H           9.4461   -0.2173    3.0444 H       1  LIG1        0.0491
     39 H           8.9817   -1.0474    0.7352 H       1  LIG1        0.0982
     40 H          10.4625   -0.0546    0.7505 H       1  LIG1        0.0982
@<TRIPOS>BOND
     1     1     2   ar
     2     1     5   ar
     3     2     9   ar
     4     3     6   ar
     5     3    10   ar
     6     4     7   ar
     7     4    10   ar
     8     5    11   ar
     9     6    12   ar
    10     7    12   ar
    11     8     9   ar
    12     8    11   ar
    13     9    13    1
    14    10    15    1
    15    11    16    1
    16    12    23    1
    17    13    19   ar
    18    13    22   ar
    19    14    20   ar
    20    14    22   ar
    21    14    24   ar
    22    15    21   ar
    23    15    24   ar
    24    17    18    1
    25    18    23    1
    26    19    20   ar
    27    21    22   ar
    28     1    25    1
    29     2    26    1
    30     3    27    1
    31     4    28    1
    32     5    29    1
    33     6    30    1
    34     7    31    1
    35     8    32    1
    36    16    33    1
    37    16    34    1
    38    16    35    1
    39    17    36    1
    40    17    37    1
    41    17    38    1
    42    18    39    1
    43    18    40    1
