@<TRIPOS>MOLECULE
AE-848/30689062
 37 38 0 0 0
SMALL
USER_CHARGES

@<TRIPOS>ATOM
      1 C           5.2777    2.3016   -0.3562 C.ar    1  LIG1       -0.0796
      2 C           5.2999   -0.0016    0.3732 C.ar    1  LIG1       -0.0737
      3 C           0.9328    4.9586    0.9203 C.ar    1  LIG1       -0.0736
      4 C          -0.1757    4.8037   -1.2208 C.ar    1  LIG1       -0.0796
      5 C           6.6696    2.2874   -0.4435 C.ar    1  LIG1       -0.0633
      6 C           6.6920   -0.0158    0.2859 C.ar    1  LIG1       -0.0530
      7 C           0.2530    6.1471    1.1863 C.ar    1  LIG1       -0.0530
      8 C          -0.8556    5.9923   -0.9548 C.ar    1  LIG1       -0.0632
      9 C           4.5927    1.1571    0.0522 C.ar    1  LIG1       -0.0129
     10 C           0.7185    4.2869   -0.2834 C.ar    1  LIG1       -0.0129
     11 C           7.3768    1.1288   -0.1226 C.ar    1  LIG1       -0.0104
     12 C          -0.6413    6.6639    0.2488 C.ar    1  LIG1       -0.0104
     13 C           3.1414    1.1716    0.1430 C.2     1  LIG1        0.0923
     14 C           1.4449    3.0163   -0.5679 C.2     1  LIG1        0.0923
     15 C           9.3947   -0.1031    0.1355 C.3     1  LIG1        0.0261
     16 C          -2.2041    8.2953   -0.4942 C.3     1  LIG1        0.0261
     17 C           2.4111    2.4827    0.4764 C.3     1  LIG1        0.1210
     18 O           2.4879    0.1228   -0.0215 O.2     1  LIG1       -0.4466
     19 O           1.2615    2.4544   -1.6448 O.2     1  LIG1       -0.4466
     20 O           8.7351    1.1148   -0.2074 O.3     1  LIG1       -0.4138
     21 O          -1.3046    7.8237    0.5080 O.3     1  LIG1       -0.4138
     22 H           4.7371    3.2102   -0.6093 H       1  LIG1        0.1457
     23 H           4.7756   -0.8987    0.6922 H       1  LIG1        0.1457
     24 H           1.6269    4.5652    1.6585 H       1  LIG1        0.1457
     25 H          -0.3499    4.2878   -2.1617 H       1  LIG1        0.1457
     26 H           7.1974    3.1822   -0.7621 H       1  LIG1        0.1149
     27 H           7.2375   -0.9211    0.5376 H       1  LIG1        0.1313
     28 H           0.4243    6.6657    2.1256 H       1  LIG1        0.1313
     29 H          -1.5508    6.3902   -1.6890 H       1  LIG1        0.1149
     30 H          10.4744    0.0227    0.0246 H       1  LIG1        0.0913
     31 H           9.0417   -0.9058   -0.5167 H       1  LIG1        0.0913
     32 H           9.1639   -0.3521    1.1741 H       1  LIG1        0.1238
     33 H          -2.6661    9.2277   -0.1605 H       1  LIG1        0.0913
     34 H          -2.9729    7.5409   -0.6791 H       1  LIG1        0.0913
     35 H          -1.6458    8.4774   -1.4156 H       1  LIG1        0.1238
     36 H           1.8578    2.2971    1.4035 H       1  LIG1        0.1303
     37 H           3.1694    3.2594    0.6249 H       1  LIG1        0.1303
@<TRIPOS>BOND
     1     1     5   ar
     2     1     9   ar
     3     2     6   ar
     4     2     9   ar
     5     3     7   ar
     6     3    10   ar
     7     4     8   ar
     8     4    10   ar
     9     5    11   ar
    10     6    11   ar
    11     7    12   ar
    12     8    12   ar
    13     9    13    1
    14    10    14    1
    15    11    20    1
    16    12    21    1
    17    13    17    1
    18    13    18    2
    19    14    17    1
    20    14    19    2
    21    15    20    1
    22    16    21    1
    23     1    22    1
    24     2    23    1
    25     3    24    1
    26     4    25    1
    27     5    26    1
    28     6    27    1
    29     7    28    1
    30     8    29    1
    31    15    30    1
    32    15    31    1
    33    15    32    1
    34    16    33    1
    35    16    34    1
    36    16    35    1
    37    17    36    1
    38    17    37    1
