@<TRIPOS>MOLECULE
AE-842/32631039
 44 46 0 0 0
SMALL
USER_CHARGES

@<TRIPOS>ATOM
      1 C          -0.7166    6.7770    0.0445 C.ar    1  LIG1       -0.1002
      2 C          -0.8586    5.8706   -1.0061 C.ar    1  LIG1       -0.0956
      3 C           0.1765    6.5083    1.0817 C.ar    1  LIG1       -0.0976
      4 C          -0.1074    4.6954   -1.0195 C.ar    1  LIG1       -0.0789
      5 C           0.9276    5.3330    1.0683 C.ar    1  LIG1       -0.0821
      6 C           5.3323    0.5255    0.5570 C.ar    1  LIG1       -0.0501
      7 C           5.7123    2.5883   -0.6418 C.ar    1  LIG1       -0.0527
      8 C           6.7023    0.2644    0.5421 C.ar    1  LIG1       -0.0352
      9 C           7.0824    2.3273   -0.6568 C.ar    1  LIG1       -0.0370
     10 C           0.7857    4.4265    0.0178 C.ar    1  LIG1       -0.0452
     11 C           4.8372    1.6874   -0.0350 C.ar    1  LIG1       -0.0295
     12 C           1.1672    1.8924   -0.0023 C.ar    1  LIG1        0.1023
     13 C           2.3406    1.0988   -0.0180 C.ar    1  LIG1        0.1006
     14 C           7.5774    1.1653   -0.0648 C.ar    1  LIG1        0.0708
     15 C           1.5630    3.2117    0.0033 C.ar    1  LIG1       -0.0031
     16 C           3.4178    1.9573   -0.0213 C.ar    1  LIG1        0.0011
     17 C          -0.1977    1.4431    0.0062 C.2     1  LIG1        0.1987
     18 C           2.4315   -0.3355   -0.0285 C.2     1  LIG1        0.1992
     19 C          -1.6071   -0.4994    0.0020 C.3     1  LIG1        0.0395
     20 C           1.8670   -2.3300    1.1807 C.3     1  LIG1        0.0398
     21 N           2.9332    3.2391   -0.0080 N.ar    1  LIG1       -0.3278
     22 N           8.9721    0.8994   -0.0802 N.pl3   1  LIG1       -0.0475
     23 O           9.3967   -0.1518    0.4578 O.2     1  LIG1       -0.1544
     24 O          -1.1985    2.1886    0.0201 O.2     1  LIG1       -0.4328
     25 O           2.9787   -1.0131   -0.9222 O.2     1  LIG1       -0.4318
     26 O           9.7421    1.7227   -0.6314 O.2     1  LIG1       -0.2458
     27 O          -0.2943    0.0719   -0.0039 O.3     1  LIG1       -0.3457
     28 O           1.8404   -0.9024    1.0755 O.3     1  LIG1       -0.3458
     29 H          -1.3011    7.6925    0.0545 H       1  LIG1        0.1245
     30 H          -1.5543    6.0800   -1.8135 H       1  LIG1        0.1247
     31 H           0.2878    7.2147    1.8992 H       1  LIG1        0.1231
     32 H          -0.2275    4.0001   -1.8469 H       1  LIG1        0.1335
     33 H           1.6188    5.1376    1.8847 H       1  LIG1        0.1261
     34 H           4.6632   -0.1866    1.0341 H       1  LIG1        0.1565
     35 H           5.3415    3.4978   -1.1088 H       1  LIG1        0.1506
     36 H           7.0750   -0.6454    1.0064 H       1  LIG1        0.1706
     37 H           7.7536    3.0368   -1.1344 H       1  LIG1        0.1692
     38 H          -1.5310   -1.5894   -0.0072 H       1  LIG1        0.0983
     39 H          -2.1593   -0.1545   -0.8758 H       1  LIG1        0.0975
     40 H          -2.1294   -0.1805    0.9071 H       1  LIG1        0.1272
     41 H           1.3643   -2.6376    2.1008 H       1  LIG1        0.1280
     42 H           2.9035   -2.6766    1.1856 H       1  LIG1        0.0986
     43 H           1.3453   -2.7594    0.3220 H       1  LIG1        0.0984
     44 H           3.4997    4.0768   -0.0071 H       1  LIG1        0.3600
@<TRIPOS>BOND
     1     1     2   ar
     2     1     3   ar
     3     2     4   ar
     4     3     5   ar
     5     4    10   ar
     6     5    10   ar
     7     6     8   ar
     8     6    11   ar
     9     7     9   ar
    10     7    11   ar
    11     8    14   ar
    12     9    14   ar
    13    10    15    1
    14    11    16    1
    15    12    13   ar
    16    12    15   ar
    17    12    17    1
    18    13    16   ar
    19    13    18    1
    20    14    22    1
    21    15    21   ar
    22    16    21   ar
    23    17    24    2
    24    17    27    1
    25    18    25    2
    26    18    28    1
    27    19    27    1
    28    20    28    1
    29    22    23    1
    30    22    26    2
    31     1    29    1
    32     2    30    1
    33     3    31    1
    34     4    32    1
    35     5    33    1
    36     6    34    1
    37     7    35    1
    38     8    36    1
    39     9    37    1
    40    19    38    1
    41    19    39    1
    42    19    40    1
    43    20    41    1
    44    20    42    1
    45    20    43    1
    46    21    44    1
