@<TRIPOS>MOLECULE
AE-842/31986011
 54 56 0 0 0
SMALL
USER_CHARGES

@<TRIPOS>ATOM
      1 C          -0.0002    4.8386   -1.0194 C.ar    1  LIG1       -0.0502
      2 C           1.0448    5.4632    1.0673 C.ar    1  LIG1       -0.0528
      3 C           5.4747    1.0248    1.0014 C.ar    1  LIG1       -0.0768
      4 C           5.6973    2.2189   -1.0870 C.ar    1  LIG1       -0.0704
      5 C          -0.7363    6.0232   -1.0055 C.ar    1  LIG1       -0.0354
      6 C           0.3087    6.6480    1.0813 C.ar    1  LIG1       -0.0371
      7 C           6.8410    0.7449    0.9870 C.ar    1  LIG1       -0.0614
      8 C           7.0637    1.9390   -1.1015 C.ar    1  LIG1       -0.0507
      9 C           0.8904    4.5585    0.0170 C.ar    1  LIG1       -0.0298
     10 C           4.9027    1.7619   -0.0357 C.ar    1  LIG1       -0.0426
     11 C           1.2361    2.0189    0.0009 C.ar    1  LIG1        0.1006
     12 C           2.3981    1.2086   -0.0147 C.ar    1  LIG1        0.1020
     13 C          -0.5818    6.9280    0.0449 C.ar    1  LIG1        0.0706
     14 C           7.6356    1.2019   -0.0643 C.ar    1  LIG1       -0.0093
     15 C           1.6505    3.3325    0.0037 C.ar    1  LIG1        0.0007
     16 C           3.4873    2.0518   -0.0207 C.ar    1  LIG1       -0.0056
     17 C          -0.1350    1.5890    0.0118 C.2     1  LIG1        0.1999
     18 C           2.4687   -0.2267   -0.0228 C.2     1  LIG1        0.1988
     19 C          -1.6041   -1.4669   -1.4314 C.3     1  LIG1       -0.0325
     20 C           5.0526   -2.3990   -1.5003 C.3     1  LIG1       -0.0326
     21 C           9.4878    0.1704    1.0131 C.3     1  LIG1        0.0256
     22 C          -1.6353   -0.1488   -0.6876 C.3     1  LIG1        0.0291
     23 C           3.7708   -2.1069   -0.7498 C.3     1  LIG1        0.0291
     24 N           3.0209    3.3404   -0.0092 N.ar    1  LIG1       -0.3286
     25 N          -1.3314    8.1337    0.0591 N.pl3   1  LIG1       -0.0477
     26 O          -2.1272    8.3663   -0.8828 O.2     1  LIG1       -0.1547
     27 O          -1.0793    2.2153    0.5349 O.2     1  LIG1       -0.4325
     28 O           1.6258   -0.9895    0.4923 O.2     1  LIG1       -0.4343
     29 O          -1.1776    8.9341    1.0133 O.2     1  LIG1       -0.2459
     30 O           8.9689    0.9287   -0.0784 O.3     1  LIG1       -0.4148
     31 O          -0.3084    0.3859   -0.6303 O.3     1  LIG1       -0.3457
     32 O           3.5879   -0.6890   -0.6735 O.3     1  LIG1       -0.3454
     33 H          -0.1318    4.1435   -1.8454 H       1  LIG1        0.1561
     34 H           1.7341    5.2586    1.8832 H       1  LIG1        0.1505
     35 H           4.8687    0.6615    1.8280 H       1  LIG1        0.1425
     36 H           5.2664    2.7947   -1.9028 H       1  LIG1        0.1408
     37 H          -1.4276    6.2288   -1.8192 H       1  LIG1        0.1703
     38 H           0.4373    7.3440    1.9065 H       1  LIG1        0.1690
     39 H           7.2809    0.1703    1.7976 H       1  LIG1        0.1194
     40 H           7.6776    2.2977   -1.9232 H       1  LIG1        0.1350
     41 H          -1.2388   -1.3299   -2.4530 H       1  LIG1        0.0499
     42 H          -0.9565   -2.1849   -0.9176 H       1  LIG1        0.0490
     43 H          -2.6040   -1.9115   -1.4705 H       1  LIG1        0.0603
     44 H           5.0098   -1.9975   -2.5166 H       1  LIG1        0.0596
     45 H           5.9117   -1.9600   -0.9826 H       1  LIG1        0.0494
     46 H           5.2308   -3.4782   -1.5540 H       1  LIG1        0.0495
     47 H          10.5622    0.0239    0.8777 H       1  LIG1        0.1239
     48 H           8.9805   -0.7966    1.0600 H       1  LIG1        0.0908
     49 H           9.3111    0.7177    1.9420 H       1  LIG1        0.0909
     50 H          -2.0016   -0.2928    0.3333 H       1  LIG1        0.1039
     51 H          -2.2821    0.5676   -1.2026 H       1  LIG1        0.1039
     52 H           3.8202   -2.5110    0.2658 H       1  LIG1        0.1029
     53 H           2.9133   -2.5455   -1.2688 H       1  LIG1        0.1034
     54 H           3.5993    4.1701   -0.0103 H       1  LIG1        0.3595
@<TRIPOS>BOND
     1     1     5   ar
     2     1     9   ar
     3     2     6   ar
     4     2     9   ar
     5     3     7   ar
     6     3    10   ar
     7     4     8   ar
     8     4    10   ar
     9     5    13   ar
    10     6    13   ar
    11     7    14   ar
    12     8    14   ar
    13     9    15    1
    14    10    16    1
    15    11    12   ar
    16    11    15   ar
    17    11    17    1
    18    12    16   ar
    19    12    18    1
    20    13    25    1
    21    14    30    1
    22    15    24   ar
    23    16    24   ar
    24    17    27    2
    25    17    31    1
    26    18    28    2
    27    18    32    1
    28    19    22    1
    29    20    23    1
    30    21    30    1
    31    22    31    1
    32    23    32    1
    33    25    26    1
    34    25    29    2
    35     1    33    1
    36     2    34    1
    37     3    35    1
    38     4    36    1
    39     5    37    1
    40     6    38    1
    41     7    39    1
    42     8    40    1
    43    19    41    1
    44    19    42    1
    45    19    43    1
    46    20    44    1
    47    20    45    1
    48    20    46    1
    49    21    47    1
    50    21    48    1
    51    21    49    1
    52    22    50    1
    53    22    51    1
    54    23    52    1
    55    23    53    1
    56    24    54    1
