@<TRIPOS>MOLECULE
AH-487/36443043
 40 41 0 0 0
SMALL
USER_CHARGES

@<TRIPOS>ATOM
      1 C           1.3146    5.4282    0.4502 C.ar    1  LIG1       -0.0918
      2 C          -0.7020    4.3981   -0.3919 C.ar    1  LIG1       -0.0804
      3 C           5.3992    1.8377   -1.0777 C.ar    1  LIG1       -0.0680
      4 C           5.3224    0.6135    1.0037 C.ar    1  LIG1       -0.0809
      5 C           0.6786    6.6697    0.4546 C.ar    1  LIG1       -0.0673
      6 C          -1.3381    5.6395   -0.3874 C.ar    1  LIG1       -0.0530
      7 C           6.7876    1.7068   -1.1035 C.ar    1  LIG1       -0.0513
      8 C           6.7109    0.4826    0.9779 C.ar    1  LIG1       -0.0663
      9 C           0.6242    4.2924    0.0269 C.ar    1  LIG1       -0.0785
     10 C           4.6666    1.2910   -0.0241 C.ar    1  LIG1       -0.0070
     11 C           7.4435    1.0293   -0.0758 C.ar    1  LIG1       -0.0116
     12 C          -0.6477    6.7753    0.0357 C.ar    1  LIG1       -0.0084
     13 C          -3.4588   10.4024   -1.0534 C.2     1  LIG1       -0.1244
     14 C           1.2874    2.9980    0.0224 C.2     1  LIG1       -0.0729
     15 C           2.6261    2.8082    0.0276 C.2     1  LIG1       -0.0171
     16 C          -2.3640    9.6572   -1.2411 C.2     1  LIG1       -0.1033
     17 C           3.1906    1.4300    0.0036 C.2     1  LIG1        0.0762
     18 C           9.4041    0.1966    0.9819 C.3     1  LIG1        0.0256
     19 C          -2.2865    8.1980   -0.9369 C.3     1  LIG1        0.0305
     20 O           2.4851    0.4275   -0.0198 O.2     1  LIG1       -0.4702
     21 O           8.7983    0.9015   -0.1006 O.3     1  LIG1       -0.4145
     22 O          -1.2683    7.9866    0.0400 O.3     1  LIG1       -0.4062
     23 H           2.3488    5.3619    0.7795 H       1  LIG1        0.1349
     24 H          -1.2533    3.5218   -0.7246 H       1  LIG1        0.1435
     25 H           4.8989    2.3675   -1.8843 H       1  LIG1        0.1510
     26 H           4.7607    0.1838    1.8291 H       1  LIG1        0.1394
     27 H           1.2215    7.5509    0.7853 H       1  LIG1        0.1125
     28 H          -2.3714    5.7155   -0.7149 H       1  LIG1        0.1314
     29 H           7.3527    2.1349   -1.9270 H       1  LIG1        0.1311
     30 H           7.2164   -0.0460    1.7815 H       1  LIG1        0.1131
     31 H          -3.4718   11.4610   -1.2883 H       1  LIG1        0.0844
     32 H          -4.3653    9.9572   -0.6582 H       1  LIG1        0.0915
     33 H           0.6312    2.1208   -0.0028 H       1  LIG1        0.1545
     34 H           3.3114    3.6477    0.0241 H       1  LIG1        0.1175
     35 H          -1.4688   10.1353   -1.6302 H       1  LIG1        0.1056
     36 H          10.4869    0.1678    0.8385 H       1  LIG1        0.0907
     37 H           9.0043   -0.8196    1.0255 H       1  LIG1        0.0907
     38 H           9.1763    0.7159    1.9159 H       1  LIG1        0.1232
     39 H          -2.0480    7.6029   -1.8240 H       1  LIG1        0.1111
     40 H          -3.2410    7.8538   -0.5266 H       1  LIG1        0.1145
@<TRIPOS>BOND
     1     1     5   ar
     2     1     9   ar
     3     2     6   ar
     4     2     9   ar
     5     3     7   ar
     6     3    10   ar
     7     4     8   ar
     8     4    10   ar
     9     5    12   ar
    10     6    12   ar
    11     7    11   ar
    12     8    11   ar
    13     9    14    1
    14    10    17    1
    15    11    21    1
    16    12    22    1
    17    13    16    2
    18    14    15    2
    19    15    17    1
    20    16    19    1
    21    17    20    2
    22    18    21    1
    23    19    22    1
    24     1    23    1
    25     2    24    1
    26     3    25    1
    27     4    26    1
    28     5    27    1
    29     6    28    1
    30     7    29    1
    31     8    30    1
    32    13    31    1
    33    13    32    1
    34    14    33    1
    35    15    34    1
    36    16    35    1
    37    18    36    1
    38    18    37    1
    39    18    38    1
    40    19    39    1
    41    19    40    1
