@<TRIPOS>MOLECULE
AO-081/15246973
 43 46 0 0 0
SMALL
USER_CHARGES

@<TRIPOS>ATOM
      1 C           7.4496    1.1491   -0.0655 C.ar    1  LIG1       -0.1013
      2 C           6.5325    0.2919    0.5427 C.ar    1  LIG1       -0.0912
      3 C           7.0107    2.3329   -0.6586 C.ar    1  LIG1       -0.0923
      4 C           0.5122    5.1336    1.2321 C.ar    1  LIG1       -0.0728
      5 C           0.4886    5.1462   -1.1837 C.ar    1  LIG1       -0.0738
      6 C          -0.2469    6.3037    1.2457 C.ar    1  LIG1       -0.0951
      7 C          -0.2707    6.3162   -1.1702 C.ar    1  LIG1       -0.0961
      8 C           5.1766    0.6186    0.5578 C.ar    1  LIG1       -0.0517
      9 C           5.6547    2.6594   -0.6434 C.ar    1  LIG1       -0.0530
     10 C          -0.0200   -0.0386    0.0025 C.ar    1  LIG1       -0.0578
     11 C           1.1886    2.0191    0.0015 C.ar    1  LIG1        0.0228
     12 C           0.8801    4.5549    0.0174 C.ar    1  LIG1       -0.0261
     13 C          -0.6384    6.8950    0.0446 C.ar    1  LIG1       -0.1145
     14 C          -0.0448    1.3561    0.0102 C.ar    1  LIG1       -0.0798
     15 C           4.7376    1.8023   -0.0352 C.ar    1  LIG1        0.0022
     16 C           1.6638    3.3456    0.0039 C.ar    1  LIG1        0.0395
     17 C           1.2091   -0.6896   -0.0132 C.ar    1  LIG1       -0.0411
     18 C           2.3404    1.2479   -0.0140 C.ar    1  LIG1        0.0519
     19 C          -1.4512    8.1452    0.0602 C.3     1  LIG1       -0.0418
     20 C          -1.3622    2.0587    0.0266 C.3     1  LIG1       -0.0263
     21 C           1.2195   -2.1851   -0.0206 C.3     1  LIG1        0.0009
     22 N           2.9989    3.4178   -0.0090 N.ar    1  LIG1       -0.2836
     23 N           2.4261   -0.0938   -0.0221 N.ar    1  LIG1       -0.3612
     24 N           3.3819    2.1282   -0.0195 N.ar    1  LIG1       -0.2501
     25 H           8.5057    0.8962   -0.0760 H       1  LIG1        0.1196
     26 H           6.8742   -0.6292    1.0057 H       1  LIG1        0.1274
     27 H           7.7256    3.0005   -1.1308 H       1  LIG1        0.1262
     28 H           0.8100    4.6855    2.1772 H       1  LIG1        0.1324
     29 H           0.7672    4.7072   -2.1389 H       1  LIG1        0.1328
     30 H          -0.5299    6.7476    2.1964 H       1  LIG1        0.1217
     31 H          -0.5719    6.7707   -2.1104 H       1  LIG1        0.1219
     32 H           4.4724   -0.0579    1.0360 H       1  LIG1        0.1372
     33 H           5.3262    3.5857   -1.1087 H       1  LIG1        0.1347
     34 H          -0.9464   -0.6063    0.0074 H       1  LIG1        0.1275
     35 H          -0.7974    9.0260    0.0591 H       1  LIG1        0.0585
     36 H          -2.1124    8.2018   -0.8143 H       1  LIG1        0.0550
     37 H          -2.0951    8.1909    0.9484 H       1  LIG1        0.0548
     38 H          -1.6878    2.2321    1.0590 H       1  LIG1        0.0699
     39 H          -1.3025    3.0258   -0.4880 H       1  LIG1        0.0641
     40 H          -2.1320    1.4705   -0.4884 H       1  LIG1        0.0677
     41 H           1.2117   -2.5578   -1.0506 H       1  LIG1        0.0821
     42 H           2.1087   -2.5758    0.4877 H       1  LIG1        0.0790
     43 H           0.3461   -2.5880    0.5055 H       1  LIG1        0.0800
@<TRIPOS>BOND
     1     1     2   ar
     2     1     3   ar
     3     2     8   ar
     4     3     9   ar
     5     4     6   ar
     6     4    12   ar
     7     5     7   ar
     8     5    12   ar
     9     6    13   ar
    10     7    13   ar
    11     8    15   ar
    12     9    15   ar
    13    10    14   ar
    14    10    17   ar
    15    11    14   ar
    16    11    16   ar
    17    11    18   ar
    18    12    16    1
    19    13    19    1
    20    14    20    1
    21    15    24    1
    22    16    22   ar
    23    17    21    1
    24    17    23   ar
    25    18    23   ar
    26    18    24   ar
    27    22    24   ar
    28     1    25    1
    29     2    26    1
    30     3    27    1
    31     4    28    1
    32     5    29    1
    33     6    30    1
    34     7    31    1
    35     8    32    1
    36     9    33    1
    37    10    34    1
    38    19    35    1
    39    19    36    1
    40    19    37    1
    41    20    38    1
    42    20    39    1
    43    20    40    1
    44    21    41    1
    45    21    42    1
    46    21    43    1
