@<TRIPOS>MOLECULE
AO-365/43400520
 38 41 0 0 0
SMALL
USER_CHARGES

@<TRIPOS>ATOM
      1 C           0.9379    6.5110    0.6337 C.ar    1  LIG1       -0.0780
      2 C           1.0063    5.1179    0.6246 C.ar    1  LIG1       -0.0551
      3 C           5.2799    0.6598    1.0140 C.ar    1  LIG1       -0.0491
      4 C           6.6693    0.5370    1.0202 C.ar    1  LIG1       -0.0504
      5 C          -0.1459    7.1600    0.0422 C.ar    1  LIG1       -0.0433
      6 C          -1.0930    5.0226   -0.5676 C.ar    1  LIG1       -0.0122
      7 C           6.7857    1.7503   -1.0658 C.ar    1  LIG1       -0.0087
      8 C          -0.0091    4.3737    0.0240 C.ar    1  LIG1        0.0162
      9 C           4.6434    1.3277   -0.0321 C.ar    1  LIG1        0.0518
     10 C           7.4223    1.0822   -0.0197 C.ar    1  LIG1       -0.0005
     11 C           5.3963    1.8730   -1.0719 C.ar    1  LIG1        0.0352
     12 C          -1.1613    6.4158   -0.5585 C.ar    1  LIG1        0.0718
     13 C           0.0612    2.9329    0.0147 C.ar    1  LIG1        0.1113
     14 C           0.8519    0.9274   -0.0035 C.ar    1  LIG1        0.1577
     15 C           3.2020    1.4425   -0.0195 C.ar    1  LIG1        0.1365
     16 C           9.3630    0.2648    1.0853 C.3     1  LIG1        0.0297
     17 C           4.4135    1.7479   -3.2339 C.3     1  LIG1        0.0318
     18 N          -0.9554    2.0863    0.0175 N.ar    1  LIG1       -0.2300
     19 N          -0.4423    0.7887    0.0056 N.ar    1  LIG1       -0.2382
     20 N           2.5242    2.5634   -0.0069 N.ar    1  LIG1       -0.2788
     21 N           1.2185    2.2248    0.0013 N.ar    1  LIG1       -0.2268
     22 O           8.7781    0.9612   -0.0140 O.3     1  LIG1       -0.4080
     23 O           4.7933    2.5293   -2.1033 O.3     1  LIG1       -0.4008
     24 F          -2.2022    7.0391   -1.1263 F       1  LIG1       -0.2668
     25 S           2.2342   -0.0697   -0.0203 S.2     1  LIG1        0.0641
     26 H           1.7285    7.0911    1.1010 H       1  LIG1        0.1413
     27 H           1.8575    4.6267    1.0904 H       1  LIG1        0.1497
     28 H           4.7043    0.2308    1.8304 H       1  LIG1        0.1685
     29 H           7.1586    0.0151    1.8381 H       1  LIG1        0.1208
     30 H          -0.1993    8.2444    0.0488 H       1  LIG1        0.1387
     31 H          -1.8919    4.4571   -1.0405 H       1  LIG1        0.1473
     32 H           7.3727    2.1727   -1.8776 H       1  LIG1        0.1360
     33 H          10.4489    0.2405    0.9660 H       1  LIG1        0.0943
     34 H           8.9673   -0.7532    1.1251 H       1  LIG1        0.1262
     35 H           9.1121    0.7876    2.0114 H       1  LIG1        0.0943
     36 H           3.9446    2.3919   -3.9819 H       1  LIG1        0.0971
     37 H           3.7155    0.9673   -2.9207 H       1  LIG1        0.0971
     38 H           5.3058    1.2854   -3.6625 H       1  LIG1        0.1294
@<TRIPOS>BOND
     1     1     2   ar
     2     1     5   ar
     3     2     8   ar
     4     3     4   ar
     5     3     9   ar
     6     4    10   ar
     7     5    12   ar
     8     6     8   ar
     9     6    12   ar
    10     7    10   ar
    11     7    11   ar
    12     8    13    1
    13     9    11   ar
    14     9    15    1
    15    10    22    1
    16    11    23    1
    17    12    24    1
    18    13    18   ar
    19    13    21   ar
    20    14    19   ar
    21    14    21   ar
    22    14    25   ar
    23    15    20   ar
    24    15    25   ar
    25    16    22    1
    26    17    23    1
    27    18    19   ar
    28    20    21   ar
    29     1    26    1
    30     2    27    1
    31     3    28    1
    32     4    29    1
    33     5    30    1
    34     6    31    1
    35     7    32    1
    36    16    33    1
    37    16    34    1
    38    16    35    1
    39    17    36    1
    40    17    37    1
    41    17    38    1
