@<TRIPOS>MOLECULE
AJ-916/40989360
 40 42 0 0 0
SMALL
USER_CHARGES

@<TRIPOS>ATOM
      1 C           0.6730    6.8269    0.9823 C.ar    1  LIG1       -0.0879
      2 C           1.0973    5.7096    0.2632 C.ar    1  LIG1       -0.0727
      3 C           5.8313    2.3813   -0.7437 C.ar    1  LIG1       -0.0536
      4 C           5.1911    0.4139    0.5038 C.ar    1  LIG1       -0.0382
      5 C           7.1746    2.0320   -0.6054 C.ar    1  LIG1       -0.0555
      6 C           6.5344    0.0646    0.6422 C.ar    1  LIG1       -0.0395
      7 C          -0.5955    7.3613    0.7562 C.ar    1  LIG1       -0.0766
      8 C          -1.0151    5.6613   -0.9083 C.ar    1  LIG1       -0.0509
      9 C           3.0251    3.0223   -0.9786 C.ar    1  LIG1        0.0110
     10 C           0.2533    5.1269   -0.6822 C.ar    1  LIG1        0.0138
     11 C           1.6572    2.9655   -0.8680 C.ar    1  LIG1        0.0651
     12 C           4.8396    1.5722   -0.1891 C.ar    1  LIG1        0.0042
     13 C           7.5262    0.8737    0.0876 C.ar    1  LIG1       -0.0051
     14 C          -1.4395    6.7786   -0.1891 C.ar    1  LIG1       -0.0303
     15 C           1.4122    1.7909   -0.1315 C.ar    1  LIG1        0.0974
     16 C           0.6968    3.9618   -1.4313 C.2     1  LIG1        0.1244
     17 C           0.1425    1.2520    0.2683 C.2     1  LIG1        0.1245
     18 C           0.1325   -0.0332    1.0602 C.3     1  LIG1        0.0481
     19 C           9.1245   -0.6657    0.9430 C.3     1  LIG1        0.0258
     20 N           2.5344    1.1479    0.2019 N.ar    1  LIG1       -0.2862
     21 N           3.4978    1.9210   -0.3274 N.ar    1  LIG1       -0.2748
     22 O           0.2790    3.7621   -2.5815 O.2     1  LIG1       -0.4190
     23 O          -0.9683    1.7499    0.0152 O.2     1  LIG1       -0.4249
     24 O           8.8367    0.5317    0.2224 O.3     1  LIG1       -0.4146
     25 BR         -3.1578    7.5033   -0.4954 Br      1  LIG1       -0.1049
     26 H           1.3302    7.2804    1.7183 H       1  LIG1        0.1320
     27 H           2.0877    5.3019    0.4479 H       1  LIG1        0.1364
     28 H           5.5714    3.2872   -1.2862 H       1  LIG1        0.1429
     29 H           4.4281   -0.2252    0.9416 H       1  LIG1        0.1615
     30 H           7.9429    2.6659   -1.0396 H       1  LIG1        0.1277
     31 H           6.8013   -0.8395    1.1827 H       1  LIG1        0.1452
     32 H          -0.9105    8.2324    1.3251 H       1  LIG1        0.1427
     33 H          -1.6695    5.2030   -1.6468 H       1  LIG1        0.1550
     34 H           3.6826    3.7370   -1.4568 H       1  LIG1        0.2214
     35 H           0.1756    0.1210    2.1500 H       1  LIG1        0.0735
     36 H           0.9574   -0.7108    0.7899 H       1  LIG1        0.0877
     37 H          -0.7800   -0.6388    0.9168 H       1  LIG1        0.0877
     38 H          10.2057   -0.8209    0.9761 H       1  LIG1        0.0911
     39 H           8.6388   -1.5129    0.4523 H       1  LIG1        0.0911
     40 H           8.7414   -0.5684    1.9616 H       1  LIG1        0.1244
@<TRIPOS>BOND
     1     1     2   ar
     2     1     7   ar
     3     2    10   ar
     4     3     5   ar
     5     3    12   ar
     6     4     6   ar
     7     4    12   ar
     8     5    13   ar
     9     6    13   ar
    10     7    14   ar
    11     8    10   ar
    12     8    14   ar
    13     9    11   ar
    14     9    21   ar
    15    10    16    1
    16    11    15   ar
    17    11    16    1
    18    12    21    1
    19    13    24    1
    20    14    25    1
    21    15    17    1
    22    15    20   ar
    23    16    22    2
    24    17    18    1
    25    17    23    2
    26    19    24    1
    27    20    21   ar
    28     1    26    1
    29     2    27    1
    30     3    28    1
    31     4    29    1
    32     5    30    1
    33     6    31    1
    34     7    32    1
    35     8    33    1
    36     9    34    1
    37    18    35    1
    38    18    36    1
    39    18    37    1
    40    19    38    1
    41    19    39    1
    42    19    40    1
