@<TRIPOS>MOLECULE
AG-690/09285010
 46 49 0 0 0
SMALL
USER_CHARGES

@<TRIPOS>ATOM
      1 C          -0.7330    6.7406    0.0447 C.ar    1  LIG1       -0.1077
      2 C          -2.4467    0.2640    0.0311 C.ar    1  LIG1       -0.1044
      3 C          -0.8079    5.8256   -1.0054 C.ar    1  LIG1       -0.1010
      4 C           0.1793    6.5400    1.0807 C.ar    1  LIG1       -0.1017
      5 C          -2.0588    1.1014    1.0770 C.ar    1  LIG1       -0.0973
      6 C          -1.5702    0.0154   -1.0252 C.ar    1  LIG1       -0.1020
      7 C           0.0292    4.7101   -1.0195 C.ar    1  LIG1       -0.0777
      8 C           1.0165    5.4245    1.0666 C.ar    1  LIG1       -0.0793
      9 C          -0.7944    1.6903    1.0665 C.ar    1  LIG1       -0.0790
     10 C          -0.3059    0.6044   -1.0356 C.ar    1  LIG1       -0.0855
     11 C           5.7999    2.1277   -1.0888 C.ar    1  LIG1       -0.0633
     12 C           5.4516    0.9676    1.0016 C.ar    1  LIG1       -0.0642
     13 C           7.1281    1.7023   -1.1037 C.ar    1  LIG1       -0.0593
     14 C           6.7800    0.5421    0.9869 C.ar    1  LIG1       -0.0526
     15 C           0.9415    4.5095    0.0165 C.ar    1  LIG1       -0.0413
     16 C           0.0821    1.4418    0.0103 C.ar    1  LIG1       -0.0537
     17 C           4.9616    1.7604   -0.0361 C.ar    1  LIG1       -0.0143
     18 C           7.6182    0.9095   -0.0659 C.ar    1  LIG1       -0.0102
     19 C           1.8035    3.3610    0.0024 C.ar    1  LIG1       -0.0019
     20 C           1.3892    2.0499    0.0002 C.ar    1  LIG1       -0.0194
     21 C           3.5877    2.2005   -0.0208 C.ar    1  LIG1        0.0122
     22 C           8.4011   -1.8441   -0.1326 C.3     1  LIG1       -0.0345
     23 C           9.2033   -0.7544    0.5463 C.3     1  LIG1        0.0144
     24 N           3.1732    3.4479   -0.0110 N.ar    1  LIG1       -0.3634
     25 N           2.5431    1.3183   -0.0152 N.ar    1  LIG1       -0.3271
     26 O           8.9144    0.4944   -0.0803 O.3     1  LIG1       -0.4165
     27 H          -1.3841    7.6098    0.0554 H       1  LIG1        0.1139
     28 H          -3.4310   -0.1951    0.0396 H       1  LIG1        0.1182
     29 H          -1.5173    5.9822   -1.8127 H       1  LIG1        0.1157
     30 H           0.2383    7.2534    1.8976 H       1  LIG1        0.1155
     31 H          -2.7415    1.2950    1.8993 H       1  LIG1        0.1208
     32 H          -1.8718   -0.6375   -1.8390 H       1  LIG1        0.1180
     33 H          -0.0412    4.0058   -1.8452 H       1  LIG1        0.1277
     34 H           1.7223    5.2826    1.8817 H       1  LIG1        0.1229
     35 H          -0.5058    2.3387    1.8905 H       1  LIG1        0.1300
     36 H           0.3654    0.4016   -1.8667 H       1  LIG1        0.1190
     37 H           5.4328    2.7452   -1.9051 H       1  LIG1        0.1514
     38 H           4.8108    0.6729    1.8293 H       1  LIG1        0.1325
     39 H           7.7764    1.9916   -1.9263 H       1  LIG1        0.1175
     40 H           7.1560   -0.0753    1.7980 H       1  LIG1        0.1321
     41 H           7.3283   -1.6502   -0.0462 H       1  LIG1        0.0577
     42 H           8.6637   -1.9127   -1.1933 H       1  LIG1        0.0481
     43 H           8.6207   -2.8197    0.3135 H       1  LIG1        0.0481
     44 H          10.2751   -0.9544    0.4562 H       1  LIG1        0.0960
     45 H           8.9391   -0.6866    1.6059 H       1  LIG1        0.0960
     46 H           2.6122    0.3087   -0.0207 H       1  LIG1        0.3498
@<TRIPOS>BOND
     1     1     3   ar
     2     1     4   ar
     3     2     5   ar
     4     2     6   ar
     5     3     7   ar
     6     4     8   ar
     7     5     9   ar
     8     6    10   ar
     9     7    15   ar
    10     8    15   ar
    11     9    16   ar
    12    10    16   ar
    13    11    13   ar
    14    11    17   ar
    15    12    14   ar
    16    12    17   ar
    17    13    18   ar
    18    14    18   ar
    19    15    19    1
    20    16    20    1
    21    17    21    1
    22    18    26    1
    23    19    20   ar
    24    19    24   ar
    25    20    25   ar
    26    21    24   ar
    27    21    25   ar
    28    22    23    1
    29    23    26    1
    30     1    27    1
    31     2    28    1
    32     3    29    1
    33     4    30    1
    34     5    31    1
    35     6    32    1
    36     7    33    1
    37     8    34    1
    38     9    35    1
    39    10    36    1
    40    11    37    1
    41    12    38    1
    42    13    39    1
    43    14    40    1
    44    22    41    1
    45    22    42    1
    46    22    43    1
    47    23    44    1
    48    23    45    1
    49    25    46    1
