@<TRIPOS>MOLECULE
AO-365/43113620
 37 40 0 0 0
SMALL
USER_CHARGES

@<TRIPOS>ATOM
      1 C          -1.0707    4.9763   -0.5671 C.ar    1  LIG1       -0.0543
      2 C           1.0279    5.1024    0.6234 C.ar    1  LIG1       -0.0493
      3 C           5.3491    0.1893    0.3626 C.ar    1  LIG1       -0.0636
      4 C           5.4868    2.4606   -0.4496 C.ar    1  LIG1       -0.0511
      5 C           6.7410    0.1002    0.3496 C.ar    1  LIG1       -0.0532
      6 C           6.8788    2.3714   -0.4626 C.ar    1  LIG1       -0.0390
      7 C          -1.1596    6.3682   -0.5578 C.ar    1  LIG1       -0.0376
      8 C           0.9390    6.4944    0.6327 C.ar    1  LIG1       -0.0342
      9 C           0.0231    4.3432    0.0236 C.ar    1  LIG1        0.0129
     10 C           4.7219    1.3695   -0.0370 C.ar    1  LIG1        0.0054
     11 C           7.5059    1.1913   -0.0629 C.ar    1  LIG1       -0.0004
     12 C          -0.1548    7.1273    0.0421 C.ar    1  LIG1        0.0694
     13 C           0.1156    2.9039    0.0135 C.ar    1  LIG1        0.1096
     14 C           0.9371    0.9109   -0.0063 C.ar    1  LIG1        0.1532
     15 C           3.2789    1.4621   -0.0235 C.ar    1  LIG1        0.1227
     16 C           9.5859   -1.1481    0.2968 C.3     1  LIG1       -0.0337
     17 C           9.4688    0.2415    0.8860 C.3     1  LIG1        0.0174
     18 N          -0.8878    2.0418    0.0164 N.ar    1  LIG1       -0.2296
     19 N          -0.3548    0.7522    0.0035 N.ar    1  LIG1       -0.2364
     20 N           2.5839    2.5723   -0.0099 N.ar    1  LIG1       -0.2767
     21 N           1.2837    2.2137   -0.0010 N.ar    1  LIG1       -0.2251
     22 O           8.8641    1.1045   -0.0759 O.3     1  LIG1       -0.4101
     23 F          -0.2397    8.4641    0.0501 F       1  LIG1       -0.2623
     24 S           2.3344   -0.0648   -0.0245 S.2     1  LIG1        0.0502
     25 H          -1.8626    4.3988   -1.0383 H       1  LIG1        0.1489
     26 H           1.8872    4.6239    1.0874 H       1  LIG1        0.1594
     27 H           4.7634   -0.6673    0.6863 H       1  LIG1        0.1483
     28 H           5.0078    3.3847   -0.7627 H       1  LIG1        0.1605
     29 H           7.2236   -0.8219    0.6619 H       1  LIG1        0.1250
     30 H           7.4694    3.2246   -0.7852 H       1  LIG1        0.1416
     31 H          -2.0106    6.8609   -1.0185 H       1  LIG1        0.1377
     32 H           1.7212    7.0855    1.0998 H       1  LIG1        0.1408
     33 H           8.6008   -1.5475    0.0403 H       1  LIG1        0.0490
     34 H          10.2075   -1.1342   -0.6045 H       1  LIG1        0.0490
     35 H          10.0692   -1.8284    1.0061 H       1  LIG1        0.0588
     36 H          10.4575    0.6351    1.1403 H       1  LIG1        0.0984
     37 H           8.8469    0.2259    1.7860 H       1  LIG1        0.0984
@<TRIPOS>BOND
     1     1     7   ar
     2     1     9   ar
     3     2     8   ar
     4     2     9   ar
     5     3     5   ar
     6     3    10   ar
     7     4     6   ar
     8     4    10   ar
     9     5    11   ar
    10     6    11   ar
    11     7    12   ar
    12     8    12   ar
    13     9    13    1
    14    10    15    1
    15    11    22    1
    16    12    23    1
    17    13    18   ar
    18    13    21   ar
    19    14    19   ar
    20    14    21   ar
    21    14    24   ar
    22    15    20   ar
    23    15    24   ar
    24    16    17    1
    25    17    22    1
    26    18    19   ar
    27    20    21   ar
    28     1    25    1
    29     2    26    1
    30     3    27    1
    31     4    28    1
    32     5    29    1
    33     6    30    1
    34     7    31    1
    35     8    32    1
    36    16    33    1
    37    16    34    1
    38    16    35    1
    39    17    36    1
    40    17    37    1
