@<TRIPOS>MOLECULE
AO-365/43113729
 40 43 0 0 0
SMALL
USER_CHARGES

@<TRIPOS>ATOM
      1 C          -1.0705    4.9761   -0.5675 C.ar    1  LIG1       -0.0669
      2 C           1.0277    5.1026    0.6235 C.ar    1  LIG1       -0.0620
      3 C           5.3491    0.1893    0.3628 C.ar    1  LIG1       -0.0542
      4 C           5.4869    2.4603   -0.4498 C.ar    1  LIG1       -0.0607
      5 C          -1.1599    6.3681   -0.5579 C.ar    1  LIG1       -0.0939
      6 C           0.9383    6.4946    0.6331 C.ar    1  LIG1       -0.0903
      7 C           6.7410    0.1001    0.3498 C.ar    1  LIG1       -0.0405
      8 C           6.8788    2.3712   -0.4628 C.ar    1  LIG1       -0.0522
      9 C           0.0233    4.3434    0.0232 C.ar    1  LIG1        0.0064
     10 C           4.7220    1.3694   -0.0370 C.ar    1  LIG1        0.0051
     11 C          -0.1555    7.1273    0.0424 C.ar    1  LIG1       -0.1121
     12 C           7.5059    1.1910   -0.0629 C.ar    1  LIG1       -0.0006
     13 C           0.1158    2.9039    0.0133 C.ar    1  LIG1        0.1082
     14 C           0.9372    0.9109   -0.0062 C.ar    1  LIG1        0.1518
     15 C           3.2791    1.4621   -0.0235 C.ar    1  LIG1        0.1221
     16 C          -0.2515    8.6155    0.0531 C.3     1  LIG1       -0.0404
     17 C           9.5859   -1.1484    0.2972 C.3     1  LIG1       -0.0337
     18 C           9.4689    0.2414    0.8861 C.3     1  LIG1        0.0173
     19 N          -0.8877    2.0419    0.0164 N.ar    1  LIG1       -0.2311
     20 N          -0.3548    0.7522    0.0038 N.ar    1  LIG1       -0.2382
     21 N           2.5841    2.5723   -0.0099 N.ar    1  LIG1       -0.2767
     22 N           1.2839    2.2138   -0.0010 N.ar    1  LIG1       -0.2253
     23 O           8.8642    1.1043   -0.0759 O.3     1  LIG1       -0.4103
     24 S           2.3345   -0.0648   -0.0242 S.2     1  LIG1        0.0486
     25 H          -1.8617    4.3982   -1.0393 H       1  LIG1        0.1352
     26 H           1.8867    4.6242    1.0878 H       1  LIG1        0.1455
     27 H           4.7635   -0.6673    0.6867 H       1  LIG1        0.1533
     28 H           5.0079    3.3844   -0.7630 H       1  LIG1        0.1550
     29 H          -2.0159    6.8527   -1.0202 H       1  LIG1        0.1227
     30 H           1.7257    7.0779    1.1032 H       1  LIG1        0.1263
     31 H           7.2236   -0.8220    0.6623 H       1  LIG1        0.1429
     32 H           7.4695    3.2242   -0.7856 H       1  LIG1        0.1234
     33 H          -0.7813    8.9578    0.9504 H       1  LIG1        0.0602
     34 H           0.7435    9.0791    0.0385 H       1  LIG1        0.0555
     35 H          -0.7876    8.9866   -0.8302 H       1  LIG1        0.0564
     36 H           8.6007   -1.5477    0.0408 H       1  LIG1        0.0587
     37 H          10.2074   -1.1346   -0.6042 H       1  LIG1        0.0491
     38 H          10.0691   -1.8284    1.0065 H       1  LIG1        0.0491
     39 H          10.4576    0.6350    1.1403 H       1  LIG1        0.0982
     40 H           8.8470    0.2260    1.7860 H       1  LIG1        0.0982
@<TRIPOS>BOND
     1     1     5   ar
     2     1     9   ar
     3     2     6   ar
     4     2     9   ar
     5     3     7   ar
     6     3    10   ar
     7     4     8   ar
     8     4    10   ar
     9     5    11   ar
    10     6    11   ar
    11     7    12   ar
    12     8    12   ar
    13     9    13    1
    14    10    15    1
    15    11    16    1
    16    12    23    1
    17    13    19   ar
    18    13    22   ar
    19    14    20   ar
    20    14    22   ar
    21    14    24   ar
    22    15    21   ar
    23    15    24   ar
    24    17    18    1
    25    18    23    1
    26    19    20   ar
    27    21    22   ar
    28     1    25    1
    29     2    26    1
    30     3    27    1
    31     4    28    1
    32     5    29    1
    33     6    30    1
    34     7    31    1
    35     8    32    1
    36    16    33    1
    37    16    34    1
    38    16    35    1
    39    17    36    1
    40    17    37    1
    41    17    38    1
    42    18    39    1
    43    18    40    1
