@<TRIPOS>MOLECULE
AO-022/42667913
 48 50 0 0 0
SMALL
USER_CHARGES

@<TRIPOS>ATOM
      1 C           0.1945    6.2672    1.2871 C.ar    1  LIG1       -0.1029
      2 C           5.4468    0.8238    0.9217 C.ar    1  LIG1       -0.0732
      3 C           0.9259    5.1205    0.9780 C.ar    1  LIG1       -0.0972
      4 C          -0.6674    6.8212    0.3404 C.ar    1  LIG1       -0.1040
      5 C           6.7871    0.4382    0.8998 C.ar    1  LIG1       -0.0515
      6 C           5.8217    2.2360   -1.0024 C.ar    1  LIG1       -0.0295
      7 C          -0.0662    5.0814   -1.2246 C.ar    1  LIG1       -0.0934
      8 C           4.9640    1.7227   -0.0295 C.ar    1  LIG1       -0.0301
      9 C           0.7956    4.5276   -0.2778 C.ar    1  LIG1       -0.0784
     10 C          -0.7976    6.2282   -0.9154 C.ar    1  LIG1       -0.1140
     11 C           7.6447    0.9515   -0.0731 C.ar    1  LIG1        0.0365
     12 C           7.1621    1.8504   -1.0243 C.ar    1  LIG1        0.0418
     13 C           3.5424    2.1298   -0.0074 C.2     1  LIG1        0.0132
     14 C           3.0978    3.4889   -0.4922 C.3     1  LIG1        0.0369
     15 C           1.5851    3.2875   -0.6105 C.3     1  LIG1        0.0869
     16 C          -1.7187    6.8209   -1.9280 C.3     1  LIG1       -0.0432
     17 C           9.3643   -0.3550    0.9230 C.3     1  LIG1        0.0262
     18 C           8.0885    1.6285   -3.2033 C.3     1  LIG1        0.0252
     19 C           0.2748    0.6188   -1.5904 C.3     1  LIG1        0.2628
     20 N           2.5920    1.3683    0.4412 N.2     1  LIG1       -0.2769
     21 N           1.3454    2.1361    0.3066 N.pl3   1  LIG1       -0.0750
     22 O          -1.2083    2.0460    0.0192 O.2     1  LIG1       -0.0886
     23 O           0.0091    0.0332    0.9423 O.2     1  LIG1       -0.0886
     24 O           8.9516    0.5670   -0.0840 O.3     1  LIG1       -0.4062
     25 O           7.9889    2.3569   -1.9812 O.3     1  LIG1       -0.4079
     26 S          -0.0423    1.1851    0.0629 S.O2    1  LIG1       -0.0331
     27 H           0.2959    6.7289    2.2651 H       1  LIG1        0.1175
     28 H           4.7876    0.4174    1.6844 H       1  LIG1        0.1361
     29 H           1.5946    4.6958    1.7222 H       1  LIG1        0.1134
     30 H          -1.2327    7.7153    0.5896 H       1  LIG1        0.1174
     31 H           7.1571   -0.2621    1.6437 H       1  LIG1        0.1288
     32 H           5.4479    2.9352   -1.7470 H       1  LIG1        0.1445
     33 H          -0.1690    4.6191   -2.2035 H       1  LIG1        0.1227
     34 H           3.3750    4.2350    0.2612 H       1  LIG1        0.1048
     35 H           3.5580    3.7480   -1.4497 H       1  LIG1        0.1046
     36 H           1.3395    2.9785   -1.6488 H       1  LIG1        0.1403
     37 H          -1.1871    7.5574   -2.5428 H       1  LIG1        0.0571
     38 H          -2.1330    6.0492   -2.5896 H       1  LIG1        0.0535
     39 H          -2.5711    7.3187   -1.4477 H       1  LIG1        0.0533
     40 H          10.4271   -0.5777    0.8007 H       1  LIG1        0.0898
     41 H           8.7769   -1.2729    0.8405 H       1  LIG1        0.1226
     42 H           9.1991    0.0940    1.9052 H       1  LIG1        0.0899
     43 H           8.7791    2.1402   -3.8781 H       1  LIG1        0.0902
     44 H           7.1007    1.5524   -3.6648 H       1  LIG1        0.0892
     45 H           8.4669    0.6261   -2.9899 H       1  LIG1        0.1226
     46 H          -0.5520   -0.0228   -1.8991 H       1  LIG1        0.1744
     47 H           0.3483    1.4891   -2.2443 H       1  LIG1        0.1760
     48 H           1.2122    0.0608   -1.5892 H       1  LIG1        0.1718
@<TRIPOS>BOND
     1     1     3   ar
     2     1     4   ar
     3     2     5   ar
     4     2     8   ar
     5     3     9   ar
     6     4    10   ar
     7     5    11   ar
     8     6     8   ar
     9     6    12   ar
    10     7     9   ar
    11     7    10   ar
    12     8    13    1
    13     9    15    1
    14    10    16    1
    15    11    12   ar
    16    11    24    1
    17    12    25    1
    18    13    14    1
    19    13    20    2
    20    14    15    1
    21    15    21    1
    22    17    24    1
    23    18    25    1
    24    19    26    1
    25    20    21    1
    26    21    26    1
    27    22    26    2
    28    23    26    2
    29     1    27    1
    30     2    28    1
    31     3    29    1
    32     4    30    1
    33     5    31    1
    34     6    32    1
    35     7    33    1
    36    14    34    1
    37    14    35    1
    38    15    36    1
    39    16    37    1
    40    16    38    1
    41    16    39    1
    42    17    40    1
    43    17    41    1
    44    17    42    1
    45    18    43    1
    46    18    44    1
    47    18    45    1
    48    19    46    1
    49    19    47    1
    50    19    48    1
