@<TRIPOS>MOLECULE
AO-365/43301260
 37 40 0 0 0
SMALL
USER_CHARGES

@<TRIPOS>ATOM
      1 C          -1.0705    4.9768   -0.5677 C.ar    1  LIG1       -0.0557
      2 C           1.0278    5.1018    0.6233 C.ar    1  LIG1       -0.0506
      3 C           5.3489    0.1895    0.3629 C.ar    1  LIG1       -0.0541
      4 C           5.4867    2.4605   -0.4499 C.ar    1  LIG1       -0.0606
      5 C           6.7409    0.1004    0.3499 C.ar    1  LIG1       -0.0402
      6 C           6.8786    2.3715   -0.4629 C.ar    1  LIG1       -0.0519
      7 C          -1.1591    6.3688   -0.5577 C.ar    1  LIG1       -0.0624
      8 C           0.9392    6.4938    0.6332 C.ar    1  LIG1       -0.0588
      9 C           0.0229    4.3433    0.0229 C.ar    1  LIG1        0.0130
     10 C           4.7218    1.3695   -0.0370 C.ar    1  LIG1        0.0054
     11 C           7.5057    1.1914   -0.0629 C.ar    1  LIG1       -0.0003
     12 C          -0.1542    7.1273    0.0428 C.ar    1  LIG1       -0.0088
     13 C           0.1154    2.9038    0.0132 C.ar    1  LIG1        0.1109
     14 C           0.9370    0.9108   -0.0061 C.ar    1  LIG1        0.1541
     15 C           3.2789    1.4621   -0.0234 C.ar    1  LIG1        0.1231
     16 C           9.5859   -1.1477    0.2974 C.3     1  LIG1       -0.0337
     17 C           9.4688    0.2420    0.8861 C.3     1  LIG1        0.0175
     18 N          -0.8879    2.0417    0.0164 N.ar    1  LIG1       -0.2288
     19 N          -0.3549    0.7521    0.0039 N.ar    1  LIG1       -0.2358
     20 N           2.5839    2.5723   -0.0100 N.ar    1  LIG1       -0.2770
     21 N           1.2836    2.2137   -0.0011 N.ar    1  LIG1       -0.2250
     22 O           8.8639    1.1048   -0.0759 O.3     1  LIG1       -0.4100
     23 S           2.3345   -0.0648   -0.0240 S.2     1  LIG1        0.0516
     24 CL         -0.2619    8.8448    0.0532 Cl      1  LIG1       -0.1352
     25 H          -1.8618    4.3994   -1.0395 H       1  LIG1        0.1457
     26 H           1.8866    4.6224    1.0876 H       1  LIG1        0.1567
     27 H           4.7633   -0.6670    0.6870 H       1  LIG1        0.1534
     28 H           5.0075    3.3846   -0.7632 H       1  LIG1        0.1553
     29 H           7.2235   -0.8214    0.6625 H       1  LIG1        0.1431
     30 H           7.4692    3.2244   -0.7859 H       1  LIG1        0.1237
     31 H          -2.0173    6.8489   -1.0213 H       1  LIG1        0.1389
     32 H           1.7293    7.0722    1.1052 H       1  LIG1        0.1425
     33 H           8.6008   -1.5473    0.0411 H       1  LIG1        0.0588
     34 H          10.2074   -1.1340   -0.6040 H       1  LIG1        0.0491
     35 H          10.0692   -1.8277    1.0069 H       1  LIG1        0.0491
     36 H          10.4575    0.6357    1.1402 H       1  LIG1        0.0984
     37 H           8.8469    0.2266    1.7862 H       1  LIG1        0.0984
@<TRIPOS>BOND
     1     1     7   ar
     2     1     9   ar
     3     2     8   ar
     4     2     9   ar
     5     3     5   ar
     6     3    10   ar
     7     4     6   ar
     8     4    10   ar
     9     5    11   ar
    10     6    11   ar
    11     7    12   ar
    12     8    12   ar
    13     9    13    1
    14    10    15    1
    15    11    22    1
    16    12    24    1
    17    13    18   ar
    18    13    21   ar
    19    14    19   ar
    20    14    21   ar
    21    14    23   ar
    22    15    20   ar
    23    15    23   ar
    24    16    17    1
    25    17    22    1
    26    18    19   ar
    27    20    21   ar
    28     1    25    1
    29     2    26    1
    30     3    27    1
    31     4    28    1
    32     5    29    1
    33     6    30    1
    34     7    31    1
    35     8    32    1
    36    16    33    1
    37    16    34    1
    38    16    35    1
    39    17    36    1
    40    17    37    1
