@<TRIPOS>MOLECULE
AF-399/34184060
 37 40 0 0 0
SMALL
USER_CHARGES

@<TRIPOS>ATOM
      1 C           7.5075    1.0084   -0.0644 C.ar    1  LIG1       -0.1064
      2 C           6.5525    0.1944    0.5445 C.ar    1  LIG1       -0.0990
      3 C           7.1229    2.2104   -0.6585 C.ar    1  LIG1       -0.1022
      4 C           0.1304    6.6505    1.0822 C.ar    1  LIG1       -0.0686
      5 C           5.2128    0.5824    0.5594 C.ar    1  LIG1       -0.0766
      6 C           5.7831    2.5984   -0.6435 C.ar    1  LIG1       -0.0813
      7 C           0.9566    5.5268    1.0678 C.ar    1  LIG1       -0.0549
      8 C          -0.7800    6.8602    0.0463 C.ar    1  LIG1       -0.0367
      9 C          -0.0377    4.8224   -1.0184 C.ar    1  LIG1       -0.0038
     10 C           4.8281    1.7844   -0.0346 C.ar    1  LIG1       -0.0419
     11 C           0.8726    4.6128    0.0174 C.ar    1  LIG1       -0.0004
     12 C          -0.8640    5.9462   -1.0040 C.ar    1  LIG1        0.0774
     13 C           3.4536    2.1826   -0.0196 C.ar    1  LIG1        0.0106
     14 C           2.3739    1.3319   -0.0140 C.ar    1  LIG1        0.0048
     15 C           1.7303    3.4469    0.0036 C.ar    1  LIG1        0.0368
     16 C           2.1589   -0.0724   -0.0194 C.ar    1  LIG1       -0.0516
     17 C           0.8961   -0.5436   -0.0092 C.ar    1  LIG1       -0.0791
     18 C          -0.2519    0.3525    0.0071 C.ar    1  LIG1       -0.0653
     19 C          -0.0466    1.6805    0.0120 C.ar    1  LIG1       -0.0259
     20 N           3.0454    3.4940   -0.0087 N.ar    1  LIG1       -0.3487
     21 N           1.2604    2.1581    0.0014 N.ar    1  LIG1       -0.3071
     22 N          -1.7909    6.1605   -2.0581 N.pl3   1  LIG1       -0.0560
     23 O          -2.5245    7.1780   -2.0250 O.2     1  LIG1       -0.1672
     24 O          -1.8511    5.3268   -2.9938 O.2     1  LIG1       -0.2601
     25 H           8.5509    0.7069   -0.0753 H       1  LIG1        0.1157
     26 H           6.8519   -0.7409    1.0081 H       1  LIG1        0.1191
     27 H           7.8669    2.8447   -1.1314 H       1  LIG1        0.1175
     28 H           0.1959    7.3623    1.9000 H       1  LIG1        0.1495
     29 H           4.4800   -0.0631    1.0382 H       1  LIG1        0.1303
     30 H           5.4994    3.5386   -1.1110 H       1  LIG1        0.1214
     31 H           1.6612    5.3775    1.8828 H       1  LIG1        0.1477
     32 H          -1.4180    7.7402    0.0702 H       1  LIG1        0.1676
     33 H          -0.1047    4.1105   -1.8396 H       1  LIG1        0.1844
     34 H           3.0035   -0.7526   -0.0321 H       1  LIG1        0.1608
     35 H           0.7015   -1.6106   -0.0136 H       1  LIG1        0.1404
     36 H          -1.2483   -0.0725    0.0143 H       1  LIG1        0.1514
     37 H          -0.8621    2.3934    0.0235 H       1  LIG1        0.1975
@<TRIPOS>BOND
     1     1     2   ar
     2     1     3   ar
     3     2     5   ar
     4     3     6   ar
     5     4     7   ar
     6     4     8   ar
     7     5    10   ar
     8     6    10   ar
     9     7    11   ar
    10     8    12   ar
    11     9    11   ar
    12     9    12   ar
    13    10    13    1
    14    11    15    1
    15    12    22    1
    16    13    14   ar
    17    13    20   ar
    18    14    16   ar
    19    14    21   ar
    20    15    20   ar
    21    15    21   ar
    22    16    17   ar
    23    17    18   ar
    24    18    19   ar
    25    19    21   ar
    26    22    23    1
    27    22    24    2
    28     1    25    1
    29     2    26    1
    30     3    27    1
    31     4    28    1
    32     5    29    1
    33     6    30    1
    34     7    31    1
    35     8    32    1
    36     9    33    1
    37    16    34    1
    38    17    35    1
    39    18    36    1
    40    19    37    1
