@<TRIPOS>MOLECULE
AG-927/31201030
 45 47 0 0 0
SMALL
USER_CHARGES

@<TRIPOS>ATOM
      1 C           0.4511    5.1438    1.3115 C.ar    1  LIG1       -0.0950
      2 C           0.4257    4.6834   -1.0601 C.ar    1  LIG1       -0.0813
      3 C           5.5075    2.5903   -0.6882 C.ar    1  LIG1       -0.0834
      4 C           5.0963    0.4270    0.3058 C.ar    1  LIG1       -0.0761
      5 C          -0.4684    6.1752    1.1212 C.ar    1  LIG1       -0.0694
      6 C          -0.4940    5.7147   -1.2505 C.ar    1  LIG1       -0.0543
      7 C           6.8667    2.4639   -0.4014 C.ar    1  LIG1       -0.0676
      8 C           6.4555    0.3005    0.5926 C.ar    1  LIG1       -0.0557
      9 C           0.8982    4.3979    0.2208 C.ar    1  LIG1       -0.0672
     10 C           4.6223    1.5719   -0.3345 C.ar    1  LIG1       -0.0405
     11 C          -0.9411    6.4606   -0.1598 C.ar    1  LIG1       -0.0133
     12 C           7.3406    1.3189    0.2391 C.ar    1  LIG1       -0.0150
     13 C           0.1562    1.5488   -0.2616 C.2     1  LIG1        0.1883
     14 C           1.8922    3.2820    0.4266 C.3     1  LIG1        0.0863
     15 C           3.1529    1.7083   -0.6451 C.3     1  LIG1        0.1032
     16 C           1.2939    1.9040    0.6493 C.3     1  LIG1        0.1709
     17 C          -2.2809    7.7043   -1.6809 C.3     1  LIG1        0.0234
     18 C           9.0839   -0.0013    1.1739 C.3     1  LIG1        0.0236
     19 C          -2.0796    2.1088   -0.7823 C.3     1  LIG1        0.0365
     20 O           0.2104    0.6760   -1.1174 O.2     1  LIG1       -0.4501
     21 O           2.7864    3.0942   -0.6787 O.3     1  LIG1       -0.4004
     22 O           2.3477    1.0053    0.3123 O.3     1  LIG1       -0.3739
     23 O          -1.8394    7.4662   -0.3452 O.3     1  LIG1       -0.4176
     24 O           8.6671    1.1951    0.5176 O.3     1  LIG1       -0.4181
     25 O          -0.9168    2.3421    0.0186 O.3     1  LIG1       -0.3549
     26 H           0.8139    4.9284    2.3129 H       1  LIG1        0.1230
     27 H           0.7686    4.1074   -1.9159 H       1  LIG1        0.1400
     28 H           5.1469    3.4858   -1.1873 H       1  LIG1        0.1414
     29 H           4.4139   -0.3715    0.5853 H       1  LIG1        0.1402
     30 H          -0.8133    6.7526    1.9749 H       1  LIG1        0.1107
     31 H          -0.8585    5.9318   -2.2506 H       1  LIG1        0.1307
     32 H           7.5514    3.2606   -0.6796 H       1  LIG1        0.1126
     33 H           6.8185   -0.5938    1.0913 H       1  LIG1        0.1297
     34 H           2.5261    3.5471    1.3051 H       1  LIG1        0.1634
     35 H           2.9626    1.2809   -1.6530 H       1  LIG1        0.1831
     36 H           0.9698    1.7442    1.6816 H       1  LIG1        0.2103
     37 H          -2.9944    8.5320   -1.6874 H       1  LIG1        0.0882
     38 H          -2.7512    6.8007   -2.0766 H       1  LIG1        0.1219
     39 H          -1.4187    7.9648   -2.2992 H       1  LIG1        0.0889
     40 H          10.1641    0.0287    1.3365 H       1  LIG1        0.1217
     41 H           8.8211   -0.8657    0.5589 H       1  LIG1        0.0893
     42 H           8.5746   -0.0739    2.1377 H       1  LIG1        0.0894
     43 H          -2.8757    2.7927   -0.4780 H       1  LIG1        0.0954
     44 H          -2.4070    1.0735   -0.6582 H       1  LIG1        0.0969
     45 H          -1.8306    2.2868   -1.8311 H       1  LIG1        0.1245
@<TRIPOS>BOND
     1     1     5   ar
     2     1     9   ar
     3     2     6   ar
     4     2     9   ar
     5     3     7   ar
     6     3    10   ar
     7     4     8   ar
     8     4    10   ar
     9     5    11   ar
    10     6    11   ar
    11     7    12   ar
    12     8    12   ar
    13     9    14    1
    14    10    15    1
    15    11    23    1
    16    12    24    1
    17    13    16    1
    18    13    20    2
    19    13    25    1
    20    14    16    1
    21    14    21    1
    22    15    21    1
    23    15    22    1
    24    16    22    1
    25    17    23    1
    26    18    24    1
    27    19    25    1
    28     1    26    1
    29     2    27    1
    30     3    28    1
    31     4    29    1
    32     5    30    1
    33     6    31    1
    34     7    32    1
    35     8    33    1
    36    14    34    1
    37    15    35    1
    38    16    36    1
    39    17    37    1
    40    17    38    1
    41    17    39    1
    42    18    40    1
    43    18    41    1
    44    18    42    1
    45    19    43    1
    46    19    44    1
    47    19    45    1
