@<TRIPOS>MOLECULE
AB-131/42301082
 33 35 0 0 0
SMALL
USER_CHARGES

@<TRIPOS>ATOM
      1 C          -0.6416    7.1176    0.0467 C.ar    1  LIG1       -0.0889
      2 C           7.3411    0.9241   -0.0608 C.ar    1  LIG1       -0.0826
      3 C          -0.2885    6.5024    1.2477 C.ar    1  LIG1       -0.0901
      4 C          -0.3080    6.5188   -1.1681 C.ar    1  LIG1       -0.0857
      5 C           6.6793    1.1085    1.1531 C.ar    1  LIG1       -0.0799
      6 C           6.6640    1.1311   -1.2628 C.ar    1  LIG1       -0.0820
      7 C           0.3983    5.2884    1.2339 C.ar    1  LIG1       -0.0826
      8 C           0.3788    5.3048   -1.1819 C.ar    1  LIG1       -0.0779
      9 C           5.3404    1.4997    1.1651 C.ar    1  LIG1       -0.0688
     10 C           5.3252    1.5223   -1.2507 C.ar    1  LIG1       -0.0719
     11 C           0.7319    4.6895    0.0191 C.ar    1  LIG1       -0.0436
     12 C           4.6634    1.7066   -0.0367 C.ar    1  LIG1       -0.0113
     13 C           1.4392    3.4398    0.0046 C.ar    1  LIG1        0.0151
     14 C           0.8275    2.2088    0.0011 C.ar    1  LIG1        0.1142
     15 C           3.2826    2.1110   -0.0240 C.ar    1  LIG1        0.1078
     16 C           3.6766    4.5004   -0.0152 C.3     1  LIG1        0.0217
     17 N           2.8125    3.3398   -0.0099 N.ar    1  LIG1       -0.3097
     18 S           2.0142    0.9636   -0.0204 S.2     1  LIG1        0.0511
     19 S          -0.8872    1.8385    0.0151 S.3     1  LIG1       -0.1001
     20 H          -1.1772    8.0624    0.0573 H       1  LIG1        0.1399
     21 H           8.3837    0.6202   -0.0702 H       1  LIG1        0.1485
     22 H          -0.5491    6.9678    2.1936 H       1  LIG1        0.1335
     23 H          -0.5841    6.9973   -2.1031 H       1  LIG1        0.1353
     24 H           7.2066    0.9471    2.0889 H       1  LIG1        0.1413
     25 H           7.1797    0.9887   -2.2080 H       1  LIG1        0.1399
     26 H           0.6666    4.8213    2.1786 H       1  LIG1        0.1287
     27 H           0.6315    4.8508   -2.1374 H       1  LIG1        0.1307
     28 H           4.8394    1.6418    2.1197 H       1  LIG1        0.1456
     29 H           4.8112    1.6786   -2.1960 H       1  LIG1        0.1396
     30 H           3.8987    4.7811    1.0181 H       1  LIG1        0.1273
     31 H           4.6098    4.2793   -0.5409 H       1  LIG1        0.1293
     32 H           3.1767    5.3299   -0.5234 H       1  LIG1        0.1317
     33 H          -0.8006    0.4958    0.0039 H       1  LIG1        0.1939
@<TRIPOS>BOND
     1     1     3   ar
     2     1     4   ar
     3     2     5   ar
     4     2     6   ar
     5     3     7   ar
     6     4     8   ar
     7     5     9   ar
     8     6    10   ar
     9     7    11   ar
    10     8    11   ar
    11     9    12   ar
    12    10    12   ar
    13    11    13    1
    14    12    15    1
    15    13    14   ar
    16    13    17   ar
    17    14    18   ar
    18    14    19    1
    19    15    17   ar
    20    15    18   ar
    21    16    17    1
    22     1    20    1
    23     2    21    1
    24     3    22    1
    25     4    23    1
    26     5    24    1
    27     6    25    1
    28     7    26    1
    29     8    27    1
    30     9    28    1
    31    10    29    1
    32    16    30    1
    33    16    31    1
    34    16    32    1
    35    19    33    1
