# Name:		AN-689/41741311
# Created and modified by SHAFTS on Mon Jul  5 00:36:42 2010

# 

@<TRIPOS>MOLECULE
AN-689/41741311
   38    40     0
SMALL
USER_CHARGE


@<TRIPOS>ATOM
      1 C1          5.2521    0.5251    0.5560 C.ar      1 <1>        -0.0506
      2 C2          5.8489    2.5284   -0.6557 C.ar      1 <1>        -0.0585
      3 C3         -0.4589    4.5454   -0.5754 C.ar      1 <1>        -0.0585
      4 C4          1.2510    5.7711    0.6125 C.ar      1 <1>        -0.0506
      5 C5          6.5887    0.1263    0.5549 C.ar      1 <1>        -0.0463
      6 C6          7.1856    2.1295   -0.6567 C.ar      1 <1>        -0.0588
      7 C7         -1.2841    5.6697   -0.5477 C.ar      1 <1>        -0.0588
      8 C8          0.4258    6.8954    0.6402 C.ar      1 <1>        -0.0462
      9 C9          4.8822    1.7262   -0.0494 C.ar      1 <1>        -0.0034
     10 C10         0.8086    4.5961    0.0047 C.ar      1 <1>        -0.0034
     11 C11         7.5555    0.9284   -0.0514 C.ar      1 <1>        -0.0090
     12 C12        -0.8418    6.8446    0.0601 C.ar      1 <1>        -0.0090
     13 C13         2.4407    1.2827   -0.0459 C.2       1 <1>         0.3168
     14 C14         1.2122    2.1484   -0.0286 C.2       1 <1>         0.3167
     15 C15         3.0597    3.4666   -0.0860 C.2       1 <1>         0.2511
     16 C16         9.1681   -0.6998    0.5841 C.3       1 <1>         0.0244
     17 C17        -2.9302    7.8205   -0.5243 C.3       1 <1>         0.0244
     18 N1          3.5114    2.1354   -0.0484 N.am      1 <1>        -0.1530
     19 N2          1.6550    3.4433   -0.0237 N.am      1 <1>        -0.1530
     20 O1          2.3263    0.0739   -0.0202 O.2       1 <1>        -0.3585
     21 O2          0.1129    1.6339    0.0135 O.2       1 <1>        -0.3586
     22 O3          3.7576    4.4608   -0.2574 O.2       1 <1>        -0.3939
     23 O4          8.8597    0.5393   -0.0524 O.3       1 <1>        -0.4169
     24 O5         -1.6469    7.9416    0.0872 O.3       1 <1>        -0.4169
     25 H1          4.5071   -0.1078    1.0316 H         1 <1>         0.1570
     26 H2          5.5722    3.4662   -1.1306 H         1 <1>         0.1585
     27 H3         -0.8137    3.6351   -1.0519 H         1 <1>         0.1585
     28 H4          2.2368    5.8222    1.0677 H         1 <1>         0.1571
     29 H5          6.8707   -0.8104    1.0282 H         1 <1>         0.1421
     30 H6          7.9340    2.7587   -1.1308 H         1 <1>         0.1241
     31 H7         -2.2704    5.6240   -1.0013 H         1 <1>         0.1241
     32 H8          0.7760    7.8077    1.1152 H         1 <1>         0.1422
     33 H9         10.2417   -0.8904    0.5113 H         1 <1>         0.1230
     34 H10         8.6104   -1.5068    0.1023 H         1 <1>         0.0902
     35 H11         8.8817   -0.6396    1.6368 H         1 <1>         0.0902
     36 H12        -3.4694    8.7664   -0.4321 H         1 <1>         0.0902
     37 H13        -3.4925    7.0194   -0.0380 H         1 <1>         0.0902
     38 H14        -2.7987    7.5803   -1.5821 H         1 <1>         0.1230
@<TRIPOS>BOND
     1    1    5 ar
     2    1    9 ar
     3    2    6 ar
     4    2    9 ar
     5    3    7 ar
     6    3   10 ar
     7    4    8 ar
     8    4   10 ar
     9    5   11 ar
    10    6   11 ar
    11    7   12 ar
    12    8   12 ar
    13    9   18 1
    14   10   19 1
    15   11   23 1
    16   12   24 1
    17   13   14 1
    18   13   18 am
    19   13   20 2
    20   14   19 am
    21   14   21 2
    22   15   18 am
    23   15   19 am
    24   15   22 2
    25   16   23 1
    26   17   24 1
    27    1   25 1
    28    2   26 1
    29    3   27 1
    30    4   28 1
    31    5   29 1
    32    6   30 1
    33    7   31 1
    34    8   32 1
    35   16   33 1
    36   16   34 1
    37   16   35 1
    38   17   36 1
    39   17   37 1
    40   17   38 1
@<TRIPOS>Similarity
1.5437
@<TRIPOS>ShapeSim
0.9205
@<TRIPOS>PharmSim
0.6233
# END
# Name:		AE-842/32631029
# Created and modified by SHAFTS on Mon Jul  5 00:36:42 2010

# 

@<TRIPOS>MOLECULE
AE-842/32631029
   42    44     0
SMALL
USER_CHARGE


@<TRIPOS>ATOM
      1 C1         -0.7546    6.5907    0.0448 C.ar      1 <1>        -0.1047
      2 C2         -0.8554    5.6800   -1.0068 C.ar      1 <1>        -0.0999
      3 C3          0.1501    6.3616    1.0816 C.ar      1 <1>        -0.0944
      4 C4         -0.0516    4.5401   -1.0217 C.ar      1 <1>        -0.0757
      5 C5          0.9538    5.2218    1.0667 C.ar      1 <1>        -0.0669
      6 C6          5.2537    0.5050    0.5560 C.ar      1 <1>        -0.0555
      7 C7          5.6900    2.5574   -0.6415 C.ar      1 <1>        -0.0401
      8 C8          6.6163    0.2074    0.5426 C.ar      1 <1>        -0.0580
      9 C9          7.0527    2.2599   -0.6550 C.ar      1 <1>        -0.0419
     10 C10         2.4157    1.0651   -0.0201 C.2       1 <1>         0.0226
     11 C11         0.8531    4.3110    0.0151 C.ar      1 <1>        -0.0215
     12 C12         1.2529    1.7961   -0.0051 C.2       1 <1>         0.0996
     13 C13         4.7905    1.6800   -0.0361 C.ar      1 <1>        -0.0043
     14 C14         7.5159    1.0848   -0.0629 C.ar      1 <1>        -0.0077
     15 C15         1.6805    3.1374    0.0001 C.2       1 <1>         0.0447
     16 C16        -0.0708    1.2491    0.0026 C.2       1 <1>         0.1815
     17 C17        -2.8948    1.6666   -1.3983 C.3       1 <1>        -0.0336
     18 C18         9.2515   -0.4217    0.5482 C.3       1 <1>         0.0246
     19 C19        -2.4098    1.8020    0.0292 C.3       1 <1>         0.0259
     20 N1          3.0111    3.2544   -0.0105 N.2       1 <1>        -0.3003
     21 N2          3.4295    1.9774   -0.0225 N.pl3     1 <1>        -0.2804
     22 O1         -0.3484    0.0296   -0.0032 O.2       1 <1>        -0.4472
     23 O2          8.8458    0.7956   -0.0758 O.3       1 <1>        -0.4167
     24 O3         -1.0420    2.2244    0.0189 O.3       1 <1>        -0.3534
     25 H1         -1.3796    7.4789    0.0560 H         1 <1>         0.1189
     26 H2         -1.5587    5.8587   -1.8148 H         1 <1>         0.1157
     27 H3          0.2292    7.0716    1.8996 H         1 <1>         0.1177
     28 H4         -0.1419    3.8395   -1.8485 H         1 <1>         0.1294
     29 H5          1.6541    5.0576    1.8825 H         1 <1>         0.1478
     30 H6          4.5635   -0.1880    1.0313 H         1 <1>         0.1403
     31 H7          5.3422    3.4764   -1.1072 H         1 <1>         0.1576
     32 H8          6.9714   -0.7093    1.0055 H         1 <1>         0.1261
     33 H9          7.7480    2.9480   -1.1278 H         1 <1>         0.1431
     34 H10         2.5989   -0.0017   -0.0290 H         1 <1>         0.2416
     35 H11        -2.8289    2.6225   -1.9252 H         1 <1>         0.0587
     36 H12        -2.3003    0.9230   -1.9392 H         1 <1>         0.0481
     37 H13        -3.9339    1.3213   -1.4217 H         1 <1>         0.0481
     38 H14        10.3358   -0.5299    0.4668 H         1 <1>         0.1234
     39 H15         8.7530   -1.2648    0.0631 H         1 <1>         0.0903
     40 H16         8.9688   -0.3919    1.6032 H         1 <1>         0.0903
     41 H17        -2.4785    0.8425    0.5505 H         1 <1>         0.1031
     42 H18        -3.0045    2.5459    0.5679 H         1 <1>         0.1030
@<TRIPOS>BOND
     1    1    2 ar
     2    1    3 ar
     3    2    4 ar
     4    3    5 ar
     5    4   11 ar
     6    5   11 ar
     7    6    8 ar
     8    6   13 ar
     9    7    9 ar
    10    7   13 ar
    11    8   14 ar
    12    9   14 ar
    13   10   12 2
    14   10   21 1
    15   11   15 1
    16   12   15 1
    17   12   16 1
    18   13   21 1
    19   14   23 1
    20   15   20 2
    21   16   22 2
    22   16   24 1
    23   17   19 1
    24   18   23 1
    25   19   24 1
    26   20   21 1
    27    1   25 1
    28    2   26 1
    29    3   27 1
    30    4   28 1
    31    5   29 1
    32    6   30 1
    33    7   31 1
    34    8   32 1
    35    9   33 1
    36   10   34 1
    37   17   35 1
    38   17   36 1
    39   17   37 1
    40   18   38 1
    41   18   39 1
    42   18   40 1
    43   19   41 1
    44   19   42 1
@<TRIPOS>Similarity
1.5219
@<TRIPOS>ShapeSim
0.9053
@<TRIPOS>PharmSim
0.6166
# END
# Name:		AH-262/11508001
# Created and modified by SHAFTS on Mon Jul  5 00:36:42 2010

# 

@<TRIPOS>MOLECULE
AH-262/11508001
   35    38     0
SMALL
USER_CHARGE


@<TRIPOS>ATOM
      1 C1         -0.6077    6.9008    0.0602 C.ar      1 <1>        -0.1036
      2 C2          7.4473    1.1272   -0.0623 C.ar      1 <1>        -0.0944
      3 C3         -1.1188    5.7556   -0.5504 C.ar      1 <1>        -0.0988
      4 C4          0.6547    6.8707    0.6530 C.ar      1 <1>        -0.0954
      5 C5          6.6365    0.6930    0.9863 C.ar      1 <1>        -0.0846
      6 C6          6.9018    1.8872   -1.0971 C.ar      1 <1>        -0.0864
      7 C7         -0.3677    4.5804   -0.5683 C.ar      1 <1>        -0.0761
      8 C8          1.4057    5.6955    0.6351 C.ar      1 <1>        -0.0716
      9 C9          5.2803    1.0186    1.0003 C.ar      1 <1>        -0.0477
     10 C10         5.5455    2.2127   -1.0832 C.ar      1 <1>        -0.0498
     11 C11         0.8946    4.5503    0.0245 C.ar      1 <1>        -0.0281
     12 C12         1.1930    2.0139   -0.0019 C.2       1 <1>         0.0773
     13 C13         4.7347    1.7785   -0.0346 C.ar      1 <1>         0.0109
     14 C14         1.6705    3.3367    0.0064 C.2       1 <1>         0.0406
     15 C15         2.3273    1.2370   -0.0190 C.2       1 <1>         0.1013
     16 C16        -0.1444   -0.0507   -0.0100 C.2       1 <1>         0.0282
     17 C17         0.9642   -0.8093   -0.0267 C.2       1 <1>         0.0341
     18 C18        -0.1311    1.4461    0.0042 C.2       1 <1>         0.1224
     19 C19         2.3278   -0.1971   -0.0325 C.2       1 <1>         0.1459
     20 N1          3.0067    3.3979   -0.0046 N.2       1 <1>        -0.2818
     21 N2          3.3787    2.1037   -0.0199 N.pl3     1 <1>        -0.2529
     22 O1         -1.1665    2.0990    0.0193 O.2       1 <1>        -0.4287
     23 O2          3.3221   -0.9152   -0.0477 O.2       1 <1>        -0.4222
     24 H1         -1.1919    7.8162    0.0732 H         1 <1>         0.1198
     25 H2          8.5036    0.8755   -0.0727 H         1 <1>         0.1298
     26 H3         -2.1011    5.7791   -1.0131 H         1 <1>         0.1179
     27 H4          1.0529    7.7628    1.1272 H         1 <1>         0.1203
     28 H5          7.0613    0.1025    1.7928 H         1 <1>         0.1327
     29 H6          7.5341    2.2261   -1.9126 H         1 <1>         0.1310
     30 H7         -0.7801    3.6959   -1.0483 H         1 <1>         0.1296
     31 H8          2.3882    5.6884    1.1017 H         1 <1>         0.1374
     32 H9          4.6595    0.6745    1.8241 H         1 <1>         0.1481
     33 H10         5.1335    2.8062   -1.8957 H         1 <1>         0.1444
     34 H11        -1.1228   -0.5210   -0.0060 H         1 <1>         0.1756
     35 H12         0.9011   -1.8918   -0.0365 H         1 <1>         0.1750
@<TRIPOS>BOND
     1    1    3 ar
     2    1    4 ar
     3    2    5 ar
     4    2    6 ar
     5    3    7 ar
     6    4    8 ar
     7    5    9 ar
     8    6   10 ar
     9    7   11 ar
    10    8   11 ar
    11    9   13 ar
    12   10   13 ar
    13   11   14 1
    14   12   14 1
    15   12   15 2
    16   12   18 1
    17   13   21 1
    18   14   20 2
    19   15   19 1
    20   15   21 1
    21   16   17 2
    22   16   18 1
    23   17   19 1
    24   18   22 2
    25   19   23 2
    26   20   21 1
    27    1   24 1
    28    2   25 1
    29    3   26 1
    30    4   27 1
    31    5   28 1
    32    6   29 1
    33    7   30 1
    34    8   31 1
    35    9   32 1
    36   10   33 1
    37   16   34 1
    38   17   35 1
@<TRIPOS>Similarity
1.4945
@<TRIPOS>ShapeSim
0.9293
@<TRIPOS>PharmSim
0.5652
# END
# Name:		AN-910/13229001
# Created and modified by SHAFTS on Mon Jul  5 00:36:42 2010

# 

@<TRIPOS>MOLECULE
AN-910/13229001
   35    37     0
SMALL
USER_CHARGE


@<TRIPOS>ATOM
      1 C1          7.5494    0.9536   -0.0658 C.ar      1 <1>        -0.1024
      2 C2          6.6037    0.1166    0.5265 C.ar      1 <1>        -0.0954
      3 C3          7.1499    2.1592   -0.6427 C.ar      1 <1>        -0.0943
      4 C4          5.2584    0.4852    0.5418 C.ar      1 <1>        -0.0605
      5 C5          5.8046    2.5276   -0.6273 C.ar      1 <1>        -0.0578
      6 C6         -0.0805    4.8025   -1.0185 C.ar      1 <1>        -0.0532
      7 C7          0.9367    5.4645    1.0705 C.ar      1 <1>        -0.0450
      8 C8         -0.8577    5.9608   -1.0071 C.ar      1 <1>        -0.0499
      9 C9          0.1597    6.6227    1.0819 C.ar      1 <1>        -0.0382
     10 C10         4.8589    1.6907   -0.0351 C.ar      1 <1>        -0.0068
     11 C11         0.8166    4.5543    0.0204 C.ar      1 <1>         0.0001
     12 C12        -0.7375    6.8709    0.0431 C.ar      1 <1>        -0.0018
     13 C13         2.4069    1.2159   -0.0304 C.2       1 <1>         0.1121
     14 C14         1.1743    2.0680    0.0049 C.2       1 <1>         0.1012
     15 C15         3.0210    3.3971   -0.0260 C.2       1 <1>         0.2426
     16 C16        -2.3926    8.1923   -1.0389 C.3       1 <1>         0.0269
     17 N1          2.4016   -0.0726   -0.0217 N.2       1 <1>        -0.3701
     18 N2          3.4797    2.0684   -0.0191 N.am      1 <1>        -0.1932
     19 N3          1.6125    3.3681    0.0088 N.am      1 <1>        -0.2030
     20 O1          3.7121    4.4033   -0.1579 O.2       1 <1>        -0.3961
     21 O2         -1.4958    8.0011    0.0542 O.3       1 <1>        -0.4118
     22 S1         -0.3076    1.3405    0.1480 S.2       1 <1>        -0.1728
     23 H1          8.5970    0.6673   -0.0773 H         1 <1>         0.1188
     24 H2          6.9144   -0.8216    0.9764 H         1 <1>         0.1269
     25 H3          7.8867    2.8111   -1.1029 H         1 <1>         0.1275
     26 H4          4.5304   -0.1751    1.0064 H         1 <1>         0.1443
     27 H5          5.5049    3.4697   -1.0800 H         1 <1>         0.1525
     28 H6         -0.1823    4.1002   -1.8420 H         1 <1>         0.1493
     29 H7          1.6325    5.2814    1.8855 H         1 <1>         0.1530
     30 H8         -1.5548    6.1486   -1.8192 H         1 <1>         0.1274
     31 H9          0.2577    7.3279    1.9028 H         1 <1>         0.1439
     32 H10        -2.9356    9.1313   -0.9059 H         1 <1>         0.0922
     33 H11        -3.0949    7.3563   -1.0856 H         1 <1>         0.0914
     34 H12        -1.8176    8.2349   -1.9670 H         1 <1>         0.1246
     35 H13         1.4332   -0.4087    0.0126 H         1 <1>         0.3178
@<TRIPOS>BOND
     1    1    2 ar
     2    1    3 ar
     3    2    4 ar
     4    3    5 ar
     5    4   10 ar
     6    5   10 ar
     7    6    8 ar
     8    6   11 ar
     9    7    9 ar
    10    7   11 ar
    11    8   12 ar
    12    9   12 ar
    13   10   18 1
    14   11   19 1
    15   12   21 1
    16   13   14 1
    17   13   17 2
    18   13   18 1
    19   14   19 1
    20   14   22 2
    21   15   18 am
    22   15   19 am
    23   15   20 2
    24   16   21 1
    25    1   23 1
    26    2   24 1
    27    3   25 1
    28    4   26 1
    29    5   27 1
    30    6   28 1
    31    7   29 1
    32    8   30 1
    33    9   31 1
    34   16   32 1
    35   16   33 1
    36   16   34 1
    37   17   35 1
@<TRIPOS>Similarity
1.4803
@<TRIPOS>ShapeSim
0.9179
@<TRIPOS>PharmSim
0.5624
# END
# Name:		AO-476/14976017
# Created and modified by SHAFTS on Mon Jul  5 00:36:42 2010

# 

@<TRIPOS>MOLECULE
AO-476/14976017
   28    30     0
SMALL
USER_CHARGE


@<TRIPOS>ATOM
      1 C1          7.4426    1.1209   -0.0502 C.ar      1 <1>        -0.0957
      2 C2          6.5304    0.2837    0.5921 C.ar      1 <1>        -0.1009
      3 C3          6.9964    2.2757   -0.6930 C.ar      1 <1>        -0.0993
      4 C4          5.1723    0.6012    0.5916 C.ar      1 <1>        -0.0930
      5 C5          5.6382    2.5932   -0.6935 C.ar      1 <1>        -0.1004
      6 C6          1.6381    3.2942   -0.0772 C.2       1 <1>         0.1232
      7 C7          1.2019    1.9721   -0.0263 C.2       1 <1>        -0.2964
      8 C8          4.7261    1.7559   -0.0512 C.ar      1 <1>         0.1095
      9 C9          2.3288    1.1918   -0.0102 C.2       1 <1>         0.3567
     10 C10         1.2747   -0.7299    0.0603 C.2       1 <1>         0.4113
     11 C11        -0.0888    1.3259    0.0104 C.cat     1 <1>         0.5576
     12 N1          2.9763    3.3657   -0.0935 N.2       1 <1>        -0.2164
     13 N2          2.4422   -0.1555    0.0365 N.2       1 <1>        -0.4796
     14 N3          3.3681    2.0726   -0.0511 N.pl3     1 <1>        -0.2756
     15 N4         -0.0025   -0.0212    0.0378 N.pl3     1 <1>        -0.2712
     16 N5         -1.1910   -0.7054    0.0728 N.3       1 <1>        -0.7742
     17 N6         -1.1704    2.0966    0.0188 N.pl3     1 <1>        -0.7721
     18 H1          8.5004    0.8752   -0.0487 H         1 <1>         0.1393
     19 H2          6.8777   -0.6148    1.0937 H         1 <1>         0.1422
     20 H3          7.7076    2.9279   -1.1918 H         1 <1>         0.1417
     21 H4          4.4719   -0.0597    1.0967 H         1 <1>         0.1382
     22 H5          5.3042    3.4968   -1.1978 H         1 <1>         0.1350
     23 H6          1.0657    4.2099   -0.1027 H         1 <1>         0.2168
     24 H7          1.1861   -1.8276    0.1001 H         1 <1>         0.2429
     25 H8         -1.1201   -1.6222   -0.4048 H         1 <1>         0.4758
     26 H9         -1.9316   -0.2108   -0.4561 H         1 <1>         0.4470
     27 H10        -1.0729    3.0994   -0.0001 H         1 <1>         0.4541
     28 H11        -2.0862    1.6768    0.0443 H         1 <1>         0.4837
@<TRIPOS>BOND
     1    1    2 ar
     2    1    3 ar
     3    2    4 ar
     4    3    5 ar
     5    4    8 ar
     6    5    8 ar
     7    6    7 1
     8    6   12 2
     9    7    9 2
    10    7   11 1
    11    8   14 1
    12    9   13 1
    13    9   14 1
    14   10   13 2
    15   10   15 1
    16   11   15 1
    17   11   17 2
    18   12   14 1
    19   15   16 1
    20    1   18 1
    21    2   19 1
    22    3   20 1
    23    4   21 1
    24    5   22 1
    25    6   23 1
    26   10   24 1
    27   16   25 1
    28   16   26 1
    29   17   27 1
    30   17   28 1
@<TRIPOS>Similarity
1.4794
@<TRIPOS>ShapeSim
0.7863
@<TRIPOS>PharmSim
0.6932
# END
# Name:		AG-205/32366038
# Created and modified by SHAFTS on Mon Jul  5 00:36:42 2010

# 

@<TRIPOS>MOLECULE
AG-205/32366038
   48    50     0
SMALL
USER_CHARGE


@<TRIPOS>ATOM
      1 C1          1.3625    5.3245    0.6206 C.ar      1 <1>        -0.0784
      2 C2         -0.5354    4.4246   -0.5732 C.ar      1 <1>        -0.0882
      3 C3          5.4710    1.8861   -1.0866 C.ar      1 <1>        -0.0742
      4 C4          5.3316    0.6772    1.0006 C.ar      1 <1>        -0.0708
      5 C5          0.7585    6.5817    0.6330 C.ar      1 <1>        -0.0545
      6 C6         -1.1394    5.6817   -0.5608 C.ar      1 <1>        -0.0673
      7 C7          6.8537    1.7029   -1.1004 C.ar      1 <1>        -0.0642
      8 C8          6.7144    0.4940    0.9868 C.ar      1 <1>        -0.0548
      9 C9          2.7278    2.8339   -0.0097 C.ar      1 <1>        -0.0461
     10 C10         0.5601    1.7920    0.0063 C.ar      1 <1>        -0.0590
     11 C11         0.7156    4.2459    0.0174 C.ar      1 <1>        -0.0727
     12 C12         4.7099    1.3733   -0.0360 C.ar      1 <1>        -0.0370
     13 C13         1.3417    2.9421    0.0046 C.ar      1 <1>        -0.0698
     14 C14        -0.4924    6.7604    0.0423 C.ar      1 <1>        -0.0123
     15 C15         7.4754    1.0068   -0.0637 C.ar      1 <1>        -0.0129
     16 C16         3.2790    1.5627   -0.0217 C.ar      1 <1>        -0.0219
     17 C17         1.2084    0.5675   -0.0066 C.ar      1 <1>        -0.0536
     18 C18         0.4014   -0.6880   -0.0034 C.3       1 <1>        -0.0079
     19 C19        -2.9634    9.2617    0.8098 C.3       1 <1>        -0.0345
     20 C20        10.5984   -0.7788   -0.1599 C.3       1 <1>        -0.0347
     21 C21        -2.5081    8.0221    0.0695 C.3       1 <1>         0.0140
     22 C22         9.3294   -0.3519    0.5465 C.3       1 <1>         0.0139
     23 N1          2.5525    0.4226   -0.0205 N.ar      1 <1>        -0.3925
     24 O1         -1.0818    7.9870    0.0552 O.3       1 <1>        -0.4170
     25 O2          8.8243    0.8277   -0.0776 O.3       1 <1>        -0.4173
     26 H1          2.3378    5.2010    1.0851 H         1 <1>         0.1395
     27 H2         -1.0525    3.5936   -1.0473 H         1 <1>         0.1331
     28 H3          5.0010    2.4308   -1.9018 H         1 <1>         0.1466
     29 H4          4.7523    0.2713    1.8264 H         1 <1>         0.1385
     30 H5          1.2673    7.4181    1.1046 H         1 <1>         0.1307
     31 H6         -2.1141    5.8150   -1.0223 H         1 <1>         0.1137
     32 H7          7.4412    2.1045   -1.9215 H         1 <1>         0.1124
     33 H8          7.1932   -0.0493    1.7969 H         1 <1>         0.1292
     34 H9          3.3592    3.7182   -0.0105 H         1 <1>         0.1310
     35 H10        -0.5247    1.8467    0.0175 H         1 <1>         0.1274
     36 H11         0.1841   -1.0036   -1.0307 H         1 <1>         0.0755
     37 H12         0.9336   -1.5012    0.5061 H         1 <1>         0.0745
     38 H13        -0.5491   -0.5479    0.5271 H         1 <1>         0.0729
     39 H14        -2.6042    9.2534    1.8425 H         1 <1>         0.0575
     40 H15        -2.5934   10.1651    0.3139 H         1 <1>         0.0483
     41 H16        -4.0565    9.3274    0.8165 H         1 <1>         0.0483
     42 H17        10.4038   -0.9976   -1.2135 H         1 <1>         0.0481
     43 H18        11.3585    0.0067   -0.0966 H         1 <1>         0.0481
     44 H19        11.0223   -1.6706    0.3136 H         1 <1>         0.0572
     45 H20        -2.8707    8.0366   -0.9627 H         1 <1>         0.0953
     46 H21        -2.8780    7.1204    0.5667 H         1 <1>         0.0953
     47 H22         9.5310   -0.1346    1.5997 H         1 <1>         0.0952
     48 H23         8.5708   -1.1375    0.4815 H         1 <1>         0.0952
@<TRIPOS>BOND
     1    1    5 ar
     2    1   11 ar
     3    2    6 ar
     4    2   11 ar
     5    3    7 ar
     6    3   12 ar
     7    4    8 ar
     8    4   12 ar
     9    5   14 ar
    10    6   14 ar
    11    7   15 ar
    12    8   15 ar
    13    9   13 ar
    14    9   16 ar
    15   10   13 ar
    16   10   17 ar
    17   11   13 1
    18   12   16 1
    19   14   24 1
    20   15   25 1
    21   16   23 ar
    22   17   18 1
    23   17   23 ar
    24   19   21 1
    25   20   22 1
    26   21   24 1
    27   22   25 1
    28    1   26 1
    29    2   27 1
    30    3   28 1
    31    4   29 1
    32    5   30 1
    33    6   31 1
    34    7   32 1
    35    8   33 1
    36    9   34 1
    37   10   35 1
    38   18   36 1
    39   18   37 1
    40   18   38 1
    41   19   39 1
    42   19   40 1
    43   19   41 1
    44   20   42 1
    45   20   43 1
    46   20   44 1
    47   21   45 1
    48   21   46 1
    49   22   47 1
    50   22   48 1
@<TRIPOS>Similarity
1.4727
@<TRIPOS>ShapeSim
0.9197
@<TRIPOS>PharmSim
0.5530
# END
# Name:		AE-848/34435008
# Created and modified by SHAFTS on Mon Jul  5 00:36:42 2010

# 

@<TRIPOS>MOLECULE
AE-848/34435008
   44    46     0
SMALL
USER_CHARGE


@<TRIPOS>ATOM
      1 C1         -0.8924    1.8365    0.0162 C.1       1 <1>         0.0752
      2 C2          0.9808    5.1098    1.0665 C.ar      1 <1>        -0.0857
      3 C3         -0.1361    4.6214   -1.0194 C.ar      1 <1>        -0.0748
      4 C4          5.3995    1.2896    1.1656 C.ar      1 <1>        -0.0672
      5 C5          5.3749    1.3022   -1.2503 C.ar      1 <1>        -0.0728
      6 C6          0.4031    6.3793    1.0787 C.ar      1 <1>        -0.0648
      7 C7         -0.7139    5.8910   -1.0072 C.ar      1 <1>        -0.0519
      8 C8          6.7839    1.1203    1.1506 C.ar      1 <1>        -0.0521
      9 C9          6.7594    1.1330   -1.2652 C.ar      1 <1>        -0.0627
     10 C10         2.6975    2.8208   -0.0074 C.ar      1 <1>        -0.0205
     11 C11         0.5410    1.7561    0.0043 C.ar      1 <1>         0.1144
     12 C12         0.7113    4.2309    0.0174 C.ar      1 <1>        -0.0574
     13 C13         4.6949    1.3804   -0.0348 C.ar      1 <1>        -0.0296
     14 C14         1.3103    2.9144    0.0047 C.ar      1 <1>        -0.0113
     15 C15        -0.4443    6.7699    0.0419 C.ar      1 <1>        -0.0110
     16 C16         7.4639    1.0420   -0.0648 C.ar      1 <1>        -0.0119
     17 C17         3.2622    1.5557   -0.0196 C.ar      1 <1>        -0.0069
     18 C18         1.2022    0.5385   -0.0086 C.ar      1 <1>         0.0524
     19 C19        -1.8648    8.3429   -1.0368 C.3       1 <1>         0.0249
     20 C20         9.4722    0.7926    1.1845 C.3       1 <1>         0.0249
     21 C21        -0.6115   -0.8243   -1.5469 C.3       1 <1>         0.0086
     22 N1         -2.0510    1.9015    0.0257 N.1       1 <1>        -0.3623
     23 N2          2.5478    0.4079   -0.0205 N.ar      1 <1>        -0.3635
     24 O1         -1.0084    8.0083    0.0543 O.3       1 <1>        -0.4158
     25 O2          8.8147    0.8775   -0.0791 O.3       1 <1>        -0.4158
     26 S1          0.3179   -1.0204   -0.0126 S.3       1 <1>        -0.1312
     27 H1          1.6392    4.8199    1.8819 H         1 <1>         0.1320
     28 H2         -0.3562    3.9478   -1.8441 H         1 <1>         0.1441
     29 H3          4.8836    1.3488    2.1210 H         1 <1>         0.1448
     30 H4          4.8400    1.3714   -2.1945 H         1 <1>         0.1469
     31 H5          0.6167    7.0595    1.8987 H         1 <1>         0.1163
     32 H6         -1.3734    6.1898   -1.8175 H         1 <1>         0.1338
     33 H7          7.3273    1.0503    2.0890 H         1 <1>         0.1322
     34 H8          7.2838    1.0729   -2.2150 H         1 <1>         0.1142
     35 H9          3.3213    3.7105   -0.0077 H         1 <1>         0.1488
     36 H10        -2.2473    9.3577   -0.9028 H         1 <1>         0.0903
     37 H11        -2.6940    7.6325   -1.0814 H         1 <1>         0.0901
     38 H12        -1.2929    8.2913   -1.9663 H         1 <1>         0.1232
     39 H13        10.5459    0.6625    1.0294 H         1 <1>         0.0903
     40 H14         9.0698   -0.0519    1.7495 H         1 <1>         0.1228
     41 H15         9.2960    1.7171    1.7396 H         1 <1>         0.0903
     42 H16        -1.2302   -1.7078   -1.7223 H         1 <1>         0.0915
     43 H17         0.0783   -0.7001   -2.3854 H         1 <1>         0.0786
     44 H18        -1.2558    0.0558   -1.4806 H         1 <1>         0.0787
@<TRIPOS>BOND
     1    1   11 1
     2    1   22 3
     3    2    6 ar
     4    2   12 ar
     5    3    7 ar
     6    3   12 ar
     7    4    8 ar
     8    4   13 ar
     9    5    9 ar
    10    5   13 ar
    11    6   15 ar
    12    7   15 ar
    13    8   16 ar
    14    9   16 ar
    15   10   14 ar
    16   10   17 ar
    17   11   14 ar
    18   11   18 ar
    19   12   14 1
    20   13   17 1
    21   15   24 1
    22   16   25 1
    23   17   23 ar
    24   18   23 ar
    25   18   26 1
    26   19   24 1
    27   20   25 1
    28   21   26 1
    29    2   27 1
    30    3   28 1
    31    4   29 1
    32    5   30 1
    33    6   31 1
    34    7   32 1
    35    8   33 1
    36    9   34 1
    37   10   35 1
    38   19   36 1
    39   19   37 1
    40   19   38 1
    41   20   39 1
    42   20   40 1
    43   20   41 1
    44   21   42 1
    45   21   43 1
    46   21   44 1
@<TRIPOS>Similarity
1.4658
@<TRIPOS>ShapeSim
0.9160
@<TRIPOS>PharmSim
0.5498
# END
# Name:		AN-689/41741268
# Created and modified by SHAFTS on Mon Jul  5 00:36:42 2010

# 

@<TRIPOS>MOLECULE
AN-689/41741268
   34    36     0
SMALL
USER_CHARGE


@<TRIPOS>ATOM
      1 C1          7.5706    0.7387   -0.0139 C.ar      1 <1>        -0.0926
      2 C2          6.7019    0.4642    1.0422 C.ar      1 <1>        -0.0859
      3 C3          7.1262    1.4816   -1.1078 C.ar      1 <1>        -0.0835
      4 C4          5.3885    0.9324    1.0045 C.ar      1 <1>        -0.0576
      5 C5          5.8128    1.9499   -1.1453 C.ar      1 <1>        -0.0544
      6 C6         -0.1374    4.7389   -1.0107 C.ar      1 <1>        -0.0463
      7 C7          0.9522    5.4969    1.0081 C.ar      1 <1>        -0.0529
      8 C8         -1.0144    5.8215   -0.9439 C.ar      1 <1>        -0.0390
      9 C9          0.0753    6.5796    1.0748 C.ar      1 <1>        -0.0495
     10 C10         4.9439    1.6753   -0.0892 C.ar      1 <1>        -0.0042
     11 C11         0.8459    4.5766   -0.0347 C.ar      1 <1>        -0.0022
     12 C12        -0.9079    6.7419    0.0989 C.ar      1 <1>        -0.0021
     13 C13         2.5241    1.3043   -0.0881 C.2       1 <1>         0.3114
     14 C14         1.2993    2.1714   -0.0723 C.2       1 <1>         0.3113
     15 C15         3.1538    3.4948   -0.2114 C.2       1 <1>         0.0794
     16 C16        -2.7449    7.9037   -0.8664 C.3       1 <1>         0.0267
     17 N1          3.5992    2.1548   -0.1275 N.am      1 <1>        -0.2006
     18 N2          1.7437    3.4682   -0.1029 N.am      1 <1>        -0.2020
     19 O1          2.4191    0.0959   -0.0210 O.2       1 <1>        -0.3536
     20 O2          0.1955    1.6703    0.0074 O.2       1 <1>        -0.3531
     21 O3         -1.7637    7.7983    0.1641 O.3       1 <1>        -0.4120
     22 S1          4.0994    4.8386   -0.5902 S.2       1 <1>        -0.1929
     23 H1          8.5937    0.3750    0.0154 H         1 <1>         0.1313
     24 H2          7.0479   -0.1134    1.8943 H         1 <1>         0.1312
     25 H3          7.8032    1.6960   -1.9295 H         1 <1>         0.1326
     26 H4          4.7204    0.7124    1.8335 H         1 <1>         0.1369
     27 H5          5.4774    2.5279   -2.0028 H         1 <1>         0.1423
     28 H6         -0.2293    4.0279   -1.8279 H         1 <1>         0.1518
     29 H7          1.7145    5.3805    1.7742 H         1 <1>         0.1510
     30 H8         -1.7782    5.9427   -1.7072 H         1 <1>         0.1434
     31 H9          0.1630    7.2932    1.8896 H         1 <1>         0.1271
     32 H10        -3.3612    8.7896   -0.6944 H         1 <1>         0.1243
     33 H11        -3.3697    7.0070   -0.8688 H         1 <1>         0.0912
     34 H12        -2.2394    7.9959   -1.8305 H         1 <1>         0.0924
@<TRIPOS>BOND
     1    1    2 ar
     2    1    3 ar
     3    2    4 ar
     4    3    5 ar
     5    4   10 ar
     6    5   10 ar
     7    6    8 ar
     8    6   11 ar
     9    7    9 ar
    10    7   11 ar
    11    8   12 ar
    12    9   12 ar
    13   10   17 1
    14   11   18 1
    15   12   21 1
    16   13   14 1
    17   13   17 am
    18   13   19 2
    19   14   18 am
    20   14   20 2
    21   15   17 1
    22   15   18 1
    23   15   22 2
    24   16   21 1
    25    1   23 1
    26    2   24 1
    27    3   25 1
    28    4   26 1
    29    5   27 1
    30    6   28 1
    31    7   29 1
    32    8   30 1
    33    9   31 1
    34   16   32 1
    35   16   33 1
    36   16   34 1
@<TRIPOS>Similarity
1.4503
@<TRIPOS>ShapeSim
0.8981
@<TRIPOS>PharmSim
0.5522
# END
# Name:		AK-087/42718335
# Created and modified by SHAFTS on Mon Jul  5 00:36:42 2010

# 

@<TRIPOS>MOLECULE
AK-087/42718335
   37    39     0
SMALL
USER_CHARGE


@<TRIPOS>ATOM
      1 C1         -0.4228    0.4429   -0.6733 C.1       1 <1>         0.0327
      2 C2         -0.5772    6.8373    0.0440 C.ar      1 <1>        -0.0980
      3 C3         -0.7087    5.9264   -1.0041 C.ar      1 <1>        -0.0880
      4 C4          0.3241    6.5851    1.0783 C.ar      1 <1>        -0.0921
      5 C5          5.3979    1.0575    1.0038 C.ar      1 <1>        -0.0645
      6 C6          5.6637    2.2374   -1.0877 C.ar      1 <1>        -0.0745
      7 C7          0.0610    4.7633   -1.0180 C.ar      1 <1>        -0.0515
      8 C8          1.0938    5.4220    1.0644 C.ar      1 <1>        -0.0582
      9 C9          6.7526    0.7255    0.9887 C.ar      1 <1>        -0.0520
     10 C10         7.0185    1.9056   -1.1027 C.ar      1 <1>        -0.0647
     11 C11         2.3725    1.2594   -0.0122 C.2       1 <1>        -0.0361
     12 C12         4.8534    1.8133   -0.0345 C.ar      1 <1>        -0.0333
     13 C13         0.9623    4.5110    0.0164 C.ar      1 <1>        -0.0086
     14 C14         7.5629    1.1497   -0.0645 C.ar      1 <1>        -0.0136
     15 C15         3.4588    2.1548   -0.0198 C.2       1 <1>         0.0056
     16 C16         1.2618    2.0672    0.0021 C.2       1 <1>        -0.0014
     17 C17         9.3761    0.0514    1.0133 C.3       1 <1>         0.0237
     18 C18        -0.1739    1.7236    0.0174 C.3       1 <1>         0.1205
     19 N1         -0.6084   -0.5641   -1.2191 N.1       1 <1>        -0.3865
     20 N2          3.0731    3.4336   -0.0114 N.2       1 <1>        -0.3127
     21 N3          1.7320    3.3475    0.0017 N.pl3     1 <1>        -0.2895
     22 O1          8.8849    0.8262   -0.0793 O.3       1 <1>        -0.4177
     23 H1         -1.1749    7.7440    0.0544 H         1 <1>         0.1243
     24 H2         -1.4095    6.1232   -1.8102 H         1 <1>         0.1301
     25 H3          0.4270    7.2957    1.8933 H         1 <1>         0.1289
     26 H4          4.7794    0.7194    1.8319 H         1 <1>         0.1459
     27 H5          5.2543    2.8269   -1.9046 H         1 <1>         0.1392
     28 H6         -0.0507    4.0619   -1.8413 H         1 <1>         0.1404
     29 H7          1.7932    5.2382    1.8766 H         1 <1>         0.1261
     30 H8          7.1715    0.1365    1.8000 H         1 <1>         0.1306
     31 H9          7.6440    2.2385   -1.9265 H         1 <1>         0.1148
     32 H10         2.3884    0.1786   -0.0163 H         1 <1>         0.1356
     33 H11        10.4441   -0.1359    0.8772 H         1 <1>         0.0896
     34 H12         8.8327   -0.8956    1.0631 H         1 <1>         0.1217
     35 H13         9.2214    0.6071    1.9411 H         1 <1>         0.0895
     36 H14        -0.7796    2.5118   -0.4629 H         1 <1>         0.1654
     37 H15        -0.5584    1.6534    1.0498 H         1 <1>         0.1782
@<TRIPOS>BOND
     1    1   18 1
     2    1   19 3
     3    2    3 ar
     4    2    4 ar
     5    3    7 ar
     6    4    8 ar
     7    5    9 ar
     8    5   12 ar
     9    6   10 ar
    10    6   12 ar
    11    7   13 ar
    12    8   13 ar
    13    9   14 ar
    14   10   14 ar
    15   11   15 1
    16   11   16 2
    17   12   15 1
    18   13   21 1
    19   14   22 1
    20   15   20 2
    21   16   18 1
    22   16   21 1
    23   17   22 1
    24   20   21 1
    25    2   23 1
    26    3   24 1
    27    4   25 1
    28    5   26 1
    29    6   27 1
    30    7   28 1
    31    8   29 1
    32    9   30 1
    33   10   31 1
    34   11   32 1
    35   17   33 1
    36   17   34 1
    37   17   35 1
    38   18   36 1
    39   18   37 1
@<TRIPOS>Similarity
1.4493
@<TRIPOS>ShapeSim
0.9143
@<TRIPOS>PharmSim
0.5350
# END
# Name:		AK-087/42718336
# Created and modified by SHAFTS on Mon Jul  5 00:36:42 2010

# 

@<TRIPOS>MOLECULE
AK-087/42718336
   37    39     0
SMALL
USER_CHARGE


@<TRIPOS>ATOM
      1 C1         -0.4897    0.4759    0.7054 C.1       1 <1>         0.0326
      2 C2          5.3188    1.0571    1.0047 C.ar      1 <1>        -0.0637
      3 C3          5.5927    2.2342   -1.0873 C.ar      1 <1>        -0.0633
      4 C4          0.0064    4.7986   -1.0173 C.ar      1 <1>        -0.0465
      5 C5          1.0451    5.4500    1.0646 C.ar      1 <1>        -0.0493
      6 C6         -0.7551    5.9671   -1.0030 C.ar      1 <1>        -0.0444
      7 C7          0.2836    6.6185    1.0789 C.ar      1 <1>        -0.0533
      8 C8          6.6711    0.7159    0.9898 C.ar      1 <1>        -0.0741
      9 C9          6.9451    1.8930   -1.1022 C.ar      1 <1>        -0.0740
     10 C10         2.2948    1.2789   -0.0109 C.2       1 <1>        -0.0348
     11 C11         4.7794    1.8162   -0.0339 C.ar      1 <1>        -0.0277
     12 C12         0.9064    4.5400    0.0165 C.ar      1 <1>        -0.0056
     13 C13        -0.6165    6.8771    0.0451 C.ar      1 <1>        -0.0066
     14 C14         7.4843    1.1339   -0.0636 C.ar      1 <1>        -0.0399
     15 C15         3.3871    2.1670   -0.0191 C.2       1 <1>         0.0115
     16 C16         1.1895    2.0942    0.0032 C.2       1 <1>        -0.0005
     17 C17        -2.2589    8.2206   -1.0289 C.3       1 <1>         0.0253
     18 C18        -0.2483    1.7603    0.0189 C.3       1 <1>         0.1208
     19 N1         -0.6691   -0.5352    1.2458 N.1       1 <1>        -0.3856
     20 N2          3.0099    3.4483   -0.0111 N.2       1 <1>        -0.3100
     21 N3          1.6683    3.3713    0.0023 N.pl3     1 <1>        -0.2891
     22 O1         -1.3586    8.0180    0.0593 O.3       1 <1>        -0.4154
     23 Br1         9.3163    0.6704   -0.0844 Br        1 <1>        -0.1109
     24 H1          4.6982    0.7235    1.8329 H         1 <1>         0.1416
     25 H2          5.1870    2.8254   -1.9052 H         1 <1>         0.1424
     26 H3         -0.1119    4.0978   -1.8403 H         1 <1>         0.1410
     27 H4          1.7425    5.2603    1.8770 H         1 <1>         0.1502
     28 H5         -1.4545    6.1635   -1.8110 H         1 <1>         0.1417
     29 H6          0.3969    7.3234    1.8981 H         1 <1>         0.1253
     30 H7          7.0749    0.1229    1.8061 H         1 <1>         0.1378
     31 H8          7.5648    2.2251   -1.9313 H         1 <1>         0.1366
     32 H9          2.3035    0.1981   -0.0146 H         1 <1>         0.1375
     33 H10        -2.7878    9.1672   -0.8938 H         1 <1>         0.0907
     34 H11        -2.9733    7.3945   -1.0706 H         1 <1>         0.0909
     35 H12        -1.6889    8.2540   -1.9604 H         1 <1>         0.1238
     36 H13        -0.6569    1.7001   -1.0049 H         1 <1>         0.1659
     37 H14        -0.8378    2.5486    0.5187 H         1 <1>         0.1789
@<TRIPOS>BOND
     1    1   18 1
     2    1   19 3
     3    2    8 ar
     4    2   11 ar
     5    3    9 ar
     6    3   11 ar
     7    4    6 ar
     8    4   12 ar
     9    5    7 ar
    10    5   12 ar
    11    6   13 ar
    12    7   13 ar
    13    8   14 ar
    14    9   14 ar
    15   10   15 1
    16   10   16 2
    17   11   15 1
    18   12   21 1
    19   13   22 1
    20   14   23 1
    21   15   20 2
    22   16   18 1
    23   16   21 1
    24   17   22 1
    25   20   21 1
    26    2   24 1
    27    3   25 1
    28    4   26 1
    29    5   27 1
    30    6   28 1
    31    7   29 1
    32    8   30 1
    33    9   31 1
    34   10   32 1
    35   17   33 1
    36   17   34 1
    37   17   35 1
    38   18   36 1
    39   18   37 1
@<TRIPOS>Similarity
1.4461
@<TRIPOS>ShapeSim
0.9316
@<TRIPOS>PharmSim
0.5146
# END
# Name:		AN-689/41741338
# Created and modified by SHAFTS on Mon Jul  5 00:36:42 2010

# 

@<TRIPOS>MOLECULE
AN-689/41741338
   34    36     0
SMALL
USER_CHARGE


@<TRIPOS>ATOM
      1 C1         -0.0371    4.8060   -1.0220 C.ar      1 <1>        -0.0463
      2 C2          0.7859    5.5456    1.1257 C.ar      1 <1>        -0.0528
      3 C3          5.3834    0.8507    0.9932 C.ar      1 <1>        -0.0442
      4 C4          5.7369    2.1265   -1.0279 C.ar      1 <1>        -0.0411
      5 C5         -0.9129    5.8910   -1.0600 C.ar      1 <1>        -0.0388
      6 C6         -0.0898    6.6305    1.0877 C.ar      1 <1>        -0.0493
      7 C7          6.6949    0.3807    0.9260 C.ar      1 <1>        -0.0610
      8 C8          7.0485    1.6565   -1.0951 C.ar      1 <1>        -0.0587
      9 C9          0.8123    4.6333    0.0708 C.ar      1 <1>        -0.0022
     10 C10         4.9043    1.7235    0.0163 C.ar      1 <1>         0.0048
     11 C11        -0.9393    6.8033   -0.0051 C.ar      1 <1>        -0.0018
     12 C12         7.5276    0.7836   -0.1181 C.ar      1 <1>        -0.0267
     13 C13         1.2615    2.2268    0.0731 C.2       1 <1>         0.3124
     14 C14         2.4845    1.3571    0.0573 C.2       1 <1>         0.3124
     15 C15         3.1212    3.5449    0.1920 C.2       1 <1>         0.0806
     16 C16        -2.6345    7.9781   -1.1891 C.3       1 <1>         0.0268
     17 N1          1.7091    3.5225    0.1098 N.am      1 <1>        -0.2016
     18 N2          3.5617    2.2050    0.0852 N.am      1 <1>        -0.1981
     19 O1          0.1555    1.7284    0.0081 O.2       1 <1>        -0.3516
     20 O2          2.3760    0.1496   -0.0203 O.2       1 <1>        -0.3522
     21 O3         -1.7939    7.8620   -0.0421 O.3       1 <1>        -0.4118
     22 S1          4.0776    4.8819    0.5676 S.2       1 <1>        -0.1893
     23 Br1         9.3046    0.1468   -0.2089 Br        1 <1>        -0.0955
     24 H1         -0.0249    4.1014   -1.8497 H         1 <1>         0.1519
     25 H2          1.4433    5.4210    1.9825 H         1 <1>         0.1513
     26 H3          4.7431    0.5302    1.8109 H         1 <1>         0.1492
     27 H4          5.3739    2.8062   -1.7944 H         1 <1>         0.1544
     28 H5         -1.5722    6.0202   -1.9140 H         1 <1>         0.1436
     29 H6         -0.1058    7.3378    1.9125 H         1 <1>         0.1274
     30 H7          7.0531   -0.2987    1.6949 H         1 <1>         0.1494
     31 H8          7.6847    1.9797   -1.9149 H         1 <1>         0.1508
     32 H9         -3.2657    8.8647   -1.0909 H         1 <1>         0.0914
     33 H10        -3.2558    7.0835   -1.2788 H         1 <1>         0.0924
     34 H11        -2.0091    8.0758   -2.0797 H         1 <1>         0.1244
@<TRIPOS>BOND
     1    1    5 ar
     2    1    9 ar
     3    2    6 ar
     4    2    9 ar
     5    3    7 ar
     6    3   10 ar
     7    4    8 ar
     8    4   10 ar
     9    5   11 ar
    10    6   11 ar
    11    7   12 ar
    12    8   12 ar
    13    9   17 1
    14   10   18 1
    15   11   21 1
    16   12   23 1
    17   13   14 1
    18   13   17 am
    19   13   19 2
    20   14   18 am
    21   14   20 2
    22   15   17 1
    23   15   18 1
    24   15   22 2
    25   16   21 1
    26    1   24 1
    27    2   25 1
    28    3   26 1
    29    4   27 1
    30    5   28 1
    31    6   29 1
    32    7   30 1
    33    8   31 1
    34   16   32 1
    35   16   33 1
    36   16   34 1
@<TRIPOS>Similarity
1.4404
@<TRIPOS>ShapeSim
0.9130
@<TRIPOS>PharmSim
0.5274
# END
# Name:		AB-323/25048030
# Created and modified by SHAFTS on Mon Jul  5 00:36:42 2010

# 

@<TRIPOS>MOLECULE
AB-323/25048030
   37    39     0
SMALL
USER_CHARGE


@<TRIPOS>ATOM
      1 C1         -0.5086    7.0417    0.0746 C.ar      1 <1>        -0.0960
      2 C2          7.2894    1.2863   -0.0153 C.ar      1 <1>        -0.0997
      3 C3         -1.1993    6.0197   -0.5764 C.ar      1 <1>        -0.0890
      4 C4          0.7182    6.7767    0.6832 C.ar      1 <1>        -0.0889
      5 C5          6.4989    0.6897    0.9669 C.ar      1 <1>        -0.0902
      6 C6          6.6930    2.0256   -1.0367 C.ar      1 <1>        -0.0909
      7 C7         -0.6633    4.7326   -0.6190 C.ar      1 <1>        -0.0593
      8 C8          1.2543    5.4897    0.6408 C.ar      1 <1>        -0.0593
      9 C9          5.1120    0.8322    0.9278 C.ar      1 <1>        -0.0567
     10 C10         5.3059    2.1683   -1.0758 C.ar      1 <1>        -0.0578
     11 C11         0.5636    4.4676   -0.0103 C.ar      1 <1>        -0.0056
     12 C12         4.5154    1.5716   -0.0936 C.ar      1 <1>         0.0023
     13 C13         0.8443    0.7834   -0.2310 C.2       1 <1>         0.0573
     14 C14         0.2897    1.9989   -0.1072 C.2       1 <1>         0.0266
     15 C15         2.2974    0.5609   -0.2372 C.2       1 <1>         0.1422
     16 C16         2.5414    3.0400   -0.1076 C.2       1 <1>         0.2310
     17 C17        -1.9225    1.5303   -1.0159 C.3       1 <1>        -0.0315
     18 N1          1.1199    3.1317   -0.0546 N.am      1 <1>        -0.2132
     19 N2          3.0745    1.7197   -0.1341 N.am      1 <1>        -0.1819
     20 N3         -1.0846    2.0537    0.0182 N.pl3     1 <1>        -0.3734
     21 O1          2.6963   -0.6025   -0.2660 O.2       1 <1>        -0.4686
     22 O2          3.2600    4.0420   -0.2201 O.2       1 <1>        -0.4221
     23 H1         -0.9253    8.0442    0.1072 H         1 <1>         0.1292
     24 H2          8.3695    1.1761    0.0154 H         1 <1>         0.1226
     25 H3         -2.1541    6.2257   -1.0511 H         1 <1>         0.1293
     26 H4          1.2564    7.5731    1.1892 H         1 <1>         0.1300
     27 H5          6.9631    0.1147    1.7629 H         1 <1>         0.1254
     28 H6          7.3088    2.4909   -1.8009 H         1 <1>         0.1247
     29 H7         -1.2106    3.9440   -1.1294 H         1 <1>         0.1358
     30 H8          2.2113    5.2950    1.1185 H         1 <1>         0.1358
     31 H9          4.5060    0.3629    1.6987 H         1 <1>         0.1346
     32 H10         4.8521    2.7468   -1.8766 H         1 <1>         0.1321
     33 H11         0.2271   -0.1089   -0.2930 H         1 <1>         0.1402
     34 H12        -1.3107    1.1278   -1.8276 H         1 <1>         0.0878
     35 H13        -2.5649    2.3188   -1.4173 H         1 <1>         0.0813
     36 H14        -2.5546    0.7301   -0.6216 H         1 <1>         0.1001
     37 H15        -1.4296    2.4655    0.8450 H         1 <1>         0.3155
@<TRIPOS>BOND
     1    1    3 ar
     2    1    4 ar
     3    2    5 ar
     4    2    6 ar
     5    3    7 ar
     6    4    8 ar
     7    5    9 ar
     8    6   10 ar
     9    7   11 ar
    10    8   11 ar
    11    9   12 ar
    12   10   12 ar
    13   11   18 1
    14   12   19 1
    15   13   14 2
    16   13   15 1
    17   14   18 1
    18   14   20 1
    19   15   19 am
    20   15   21 2
    21   16   18 am
    22   16   19 am
    23   16   22 2
    24   17   20 1
    25    1   23 1
    26    2   24 1
    27    3   25 1
    28    4   26 1
    29    5   27 1
    30    6   28 1
    31    7   29 1
    32    8   30 1
    33    9   31 1
    34   10   32 1
    35   13   33 1
    36   17   34 1
    37   17   35 1
    38   17   36 1
    39   20   37 1
@<TRIPOS>Similarity
1.4363
@<TRIPOS>ShapeSim
0.8863
@<TRIPOS>PharmSim
0.5501
# END
# Name:		AG-205/04686018
# Created and modified by SHAFTS on Mon Jul  5 00:36:42 2010

# 

@<TRIPOS>MOLECULE
AG-205/04686018
   38    40     0
SMALL
USER_CHARGE


@<TRIPOS>ATOM
      1 C1         -0.9003    1.7983    0.0205 C.1       1 <1>         0.0625
      2 C2         -0.4780    6.7472    0.0418 C.ar      1 <1>        -0.1037
      3 C3         -0.1963    6.1206   -1.1720 C.ar      1 <1>        -0.1003
      4 C4         -0.1750    6.1077    1.2438 C.ar      1 <1>        -0.1000
      5 C5          0.3883    4.8541   -1.1839 C.ar      1 <1>        -0.0876
      6 C6          0.4096    4.8413    1.2320 C.ar      1 <1>        -0.0862
      7 C7          5.4422    1.9050   -1.0859 C.ar      1 <1>        -0.0617
      8 C8          5.3210    0.6939    1.0011 C.ar      1 <1>        -0.0756
      9 C9          6.8272    1.7413   -1.1004 C.ar      1 <1>        -0.0505
     10 C10         6.7060    0.5302    0.9865 C.ar      1 <1>        -0.0656
     11 C11         2.6854    2.8133   -0.0075 C.ar      1 <1>        -0.0287
     12 C12         0.5333    1.7396    0.0053 C.ar      1 <1>         0.1226
     13 C13         0.6913    4.2145    0.0180 C.ar      1 <1>        -0.0601
     14 C14         4.6890    1.3813   -0.0351 C.ar      1 <1>        -0.0260
     15 C15         1.2978    2.9011    0.0053 C.ar      1 <1>        -0.0157
     16 C16         7.4593    1.0539   -0.0642 C.ar      1 <1>        -0.0131
     17 C17         3.2554    1.5505   -0.0199 C.ar      1 <1>        -0.0073
     18 C18         1.1996    0.5249   -0.0080 C.ar      1 <1>         0.0220
     19 C19         9.3921    0.1808    1.0116 C.3       1 <1>         0.0246
     20 N1         -2.0597    1.8457    0.0328 N.1       1 <1>        -0.3818
     21 N2          2.5457    0.3998   -0.0206 N.ar      1 <1>        -0.3523
     22 N3          0.4380   -0.6714   -0.0081 N.pl3     1 <1>        -0.3647
     23 O1          8.8106    0.8939   -0.0790 O.3       1 <1>        -0.4168
     24 H1         -0.9316    7.7340    0.0507 H         1 <1>         0.1201
     25 H2         -0.4307    6.6191   -2.1081 H         1 <1>         0.1193
     26 H3         -0.3927    6.5958    2.1893 H         1 <1>         0.1203
     27 H4          0.6020    4.3788   -2.1384 H         1 <1>         0.1221
     28 H5          0.6408    4.3553    2.1768 H         1 <1>         0.1288
     29 H6          4.9640    2.4431   -1.9008 H         1 <1>         0.1546
     30 H7          4.7478    0.2797    1.8271 H         1 <1>         0.1395
     31 H8          7.4086    2.1513   -1.9218 H         1 <1>         0.1298
     32 H9          7.1930   -0.0063    1.7964 H         1 <1>         0.1139
     33 H10         3.3053    3.7059   -0.0085 H         1 <1>         0.1310
     34 H11        10.4750    0.1255    0.8757 H         1 <1>         0.1225
     35 H12         8.9680   -0.8254    1.0578 H         1 <1>         0.0901
     36 H13         9.1705    0.7105    1.9412 H         1 <1>         0.0901
     37 H14        -0.5545   -0.6087    0.0491 H         1 <1>         0.2931
     38 H15         0.9160   -1.5447    0.0301 H         1 <1>         0.2908
@<TRIPOS>BOND
     1    1   12 1
     2    1   20 3
     3    2    3 ar
     4    2    4 ar
     5    3    5 ar
     6    4    6 ar
     7    5   13 ar
     8    6   13 ar
     9    7    9 ar
    10    7   14 ar
    11    8   10 ar
    12    8   14 ar
    13    9   16 ar
    14   10   16 ar
    15   11   15 ar
    16   11   17 ar
    17   12   15 ar
    18   12   18 ar
    19   13   15 1
    20   14   17 1
    21   16   23 1
    22   17   21 ar
    23   18   21 ar
    24   18   22 1
    25   19   23 1
    26    2   24 1
    27    3   25 1
    28    4   26 1
    29    5   27 1
    30    6   28 1
    31    7   29 1
    32    8   30 1
    33    9   31 1
    34   10   32 1
    35   11   33 1
    36   19   34 1
    37   19   35 1
    38   19   36 1
    39   22   37 1
    40   22   38 1
@<TRIPOS>Similarity
1.4344
@<TRIPOS>ShapeSim
0.9036
@<TRIPOS>PharmSim
0.5308
# END
# Name:		AG-690/10678060
# Created and modified by SHAFTS on Mon Jul  5 00:36:42 2010

# 

@<TRIPOS>MOLECULE
AG-690/10678060
   46    49     0
SMALL
USER_CHARGE


@<TRIPOS>ATOM
      1 C1         -2.5787    0.3939    0.0343 C.ar      1 <1>        -0.1046
      2 C2         -2.3687    1.6321    0.6412 C.ar      1 <1>        -0.0976
      3 C3         -1.5180   -0.2688   -0.5836 C.ar      1 <1>        -0.1023
      4 C4         -1.0981    2.2077    0.6303 C.ar      1 <1>        -0.0792
      5 C5         -0.2475    0.3068   -0.5946 C.ar      1 <1>        -0.0859
      6 C6          5.6869    2.1717   -1.0877 C.ar      1 <1>        -0.0643
      7 C7          5.3269    1.0159    1.0032 C.ar      1 <1>        -0.0751
      8 C8         -0.0568    4.8135   -1.0182 C.ar      1 <1>        -0.0774
      9 C9          0.9381    5.5177    1.0678 C.ar      1 <1>        -0.0656
     10 C10         7.0108    1.7327   -1.1024 C.ar      1 <1>        -0.0926
     11 C11         6.6508    0.5768    0.9884 C.ar      1 <1>        -0.0989
     12 C12        -0.8827    5.9375   -1.0037 C.ar      1 <1>        -0.0676
     13 C13         0.1122    6.6417    1.0823 C.ar      1 <1>        -0.0538
     14 C14         0.8535    4.6035    0.0176 C.ar      1 <1>        -0.0386
     15 C15        -0.0375    1.5451    0.0123 C.ar      1 <1>        -0.0543
     16 C16         4.8450    1.8133   -0.0348 C.ar      1 <1>        -0.0167
     17 C17         7.4927    0.9351   -0.0645 C.ar      1 <1>        -0.1148
     18 C18        -0.7982    6.8516    0.0464 C.ar      1 <1>        -0.0160
     19 C19         1.7036    3.4463    0.0037 C.2       1 <1>        -0.0037
     20 C20         1.2758    2.1396    0.0018 C.2       1 <1>        -0.0200
     21 C21         3.4757    2.2675   -0.0194 C.2       1 <1>         0.0145
     22 C22         8.9082    0.4662   -0.0802 C.3       1 <1>        -0.0424
     23 C23        -2.5113    8.1020   -1.0294 C.3       1 <1>         0.0226
     24 N1          3.0741    3.5192   -0.0099 N.2       1 <1>        -0.3627
     25 N2          2.4222    1.3962   -0.0135 N.pl3     1 <1>        -0.3270
     26 O1         -1.6036    7.9486    0.0607 O.3       1 <1>        -0.4195
     27 H1         -3.5678   -0.0544    0.0434 H         1 <1>         0.1181
     28 H2         -3.1947    2.1481    1.1220 H         1 <1>         0.1207
     29 H3         -1.6813   -1.2334   -1.0553 H         1 <1>         0.1180
     30 H4         -0.9500    3.1722    1.1099 H         1 <1>         0.1308
     31 H5          0.5685   -0.2219   -1.0813 H         1 <1>         0.1186
     32 H6          5.3262    2.7930   -1.9039 H         1 <1>         0.1438
     33 H7          4.6829    0.7278    1.8307 H         1 <1>         0.1189
     34 H8         -0.1346    4.1101   -1.8438 H         1 <1>         0.1323
     35 H9          1.6422    5.3680    1.8829 H         1 <1>         0.1436
     36 H10         7.6598    2.0170   -1.9265 H         1 <1>         0.1236
     37 H11         7.0175   -0.0442    1.8014 H         1 <1>         0.1205
     38 H12        -1.5899    6.0961   -1.8132 H         1 <1>         0.1114
     39 H13         0.1827    7.3495    1.9037 H         1 <1>         0.1283
     40 H14         9.5559    1.1890    0.4311 H         1 <1>         0.0582
     41 H15         9.0114   -0.5065    0.4181 H         1 <1>         0.0541
     42 H16         9.2740    0.3371   -1.1073 H         1 <1>         0.0549
     43 H17        -3.0932    9.0169   -0.8941 H         1 <1>         0.1206
     44 H18        -3.1777    7.2369   -1.0744 H         1 <1>         0.0884
     45 H19        -1.9417    8.1694   -1.9594 H         1 <1>         0.0884
     46 H20         2.4808    0.3859   -0.0188 H         1 <1>         0.3498
@<TRIPOS>BOND
     1    1    2 ar
     2    1    3 ar
     3    2    4 ar
     4    3    5 ar
     5    4   15 ar
     6    5   15 ar
     7    6   10 ar
     8    6   16 ar
     9    7   11 ar
    10    7   16 ar
    11    8   12 ar
    12    8   14 ar
    13    9   13 ar
    14    9   14 ar
    15   10   17 ar
    16   11   17 ar
    17   12   18 ar
    18   13   18 ar
    19   14   19 1
    20   15   20 1
    21   16   21 1
    22   17   22 1
    23   18   26 1
    24   19   20 2
    25   19   24 1
    26   20   25 1
    27   21   24 2
    28   21   25 1
    29   23   26 1
    30    1   27 1
    31    2   28 1
    32    3   29 1
    33    4   30 1
    34    5   31 1
    35    6   32 1
    36    7   33 1
    37    8   34 1
    38    9   35 1
    39   10   36 1
    40   11   37 1
    41   12   38 1
    42   13   39 1
    43   22   40 1
    44   22   41 1
    45   22   42 1
    46   23   43 1
    47   23   44 1
    48   23   45 1
    49   25   46 1
@<TRIPOS>Similarity
1.4340
@<TRIPOS>ShapeSim
0.9146
@<TRIPOS>PharmSim
0.5193
# END
# Name:		AE-842/31986027
# Created and modified by SHAFTS on Mon Jul  5 00:36:42 2010

# 

@<TRIPOS>MOLECULE
AE-842/31986027
   41    43     0
SMALL
USER_CHARGE


@<TRIPOS>ATOM
      1 C1         -0.7877    6.6346    0.0456 C.ar      1 <1>        -0.1023
      2 C2          7.4802    1.1563   -0.0618 C.ar      1 <1>        -0.0983
      3 C3         -0.8912    5.7242   -1.0060 C.ar      1 <1>        -0.0975
      4 C4          0.1165    6.4030    1.0822 C.ar      1 <1>        -0.0961
      5 C5          6.6826    0.7003    0.9877 C.ar      1 <1>        -0.0919
      6 C6          6.9123    1.8970   -1.0985 C.ar      1 <1>        -0.0884
      7 C7         -0.0907    4.5820   -1.0210 C.ar      1 <1>        -0.0756
      8 C8          0.9170    5.2608    1.0673 C.ar      1 <1>        -0.0733
      9 C9          5.3172    0.9848    1.0006 C.ar      1 <1>        -0.0569
     10 C10         5.5468    2.1816   -1.0856 C.ar      1 <1>        -0.0517
     11 C11         0.8135    4.3503    0.0156 C.ar      1 <1>        -0.0269
     12 C12         1.2066    1.8342   -0.0047 C.2       1 <1>         0.0989
     13 C13         4.7492    1.7256   -0.0360 C.ar      1 <1>        -0.0061
     14 C14         1.6376    3.1744    0.0005 C.2       1 <1>         0.0444
     15 C15         2.3673    1.1002   -0.0199 C.2       1 <1>        -0.0005
     16 C16        -0.1230    1.2989    0.0035 C.2       1 <1>         0.1899
     17 C17         2.5893   -0.3607   -0.0318 C.3       1 <1>         0.0038
     18 C18        -2.9425    1.7421   -1.3972 C.3       1 <1>        -0.0334
     19 C19        -2.4560    1.8735    0.0303 C.3       1 <1>         0.0274
     20 N1          2.9684    3.2879   -0.0103 N.2       1 <1>        -0.2996
     21 N2          3.3836    2.0099   -0.0223 N.pl3     1 <1>        -0.2823
     22 O1         -0.4108    0.0823   -0.0023 O.2       1 <1>        -0.4383
     23 O2         -1.0843    2.2834    0.0197 O.3       1 <1>        -0.3493
     24 H1         -1.4101    7.5246    0.0569 H         1 <1>         0.1219
     25 H2          8.5436    0.9365   -0.0715 H         1 <1>         0.1241
     26 H3         -1.5942    5.9050   -1.8139 H         1 <1>         0.1213
     27 H4          0.1978    7.1127    1.9002 H         1 <1>         0.1216
     28 H5          7.1248    0.1246    1.7955 H         1 <1>         0.1303
     29 H6          7.5343    2.2529   -1.9147 H         1 <1>         0.1303
     30 H7         -0.1831    3.8816   -1.8479 H         1 <1>         0.1288
     31 H8          1.6169    5.0947    1.8829 H         1 <1>         0.1329
     32 H9          4.7069    0.6241    1.8250 H         1 <1>         0.1333
     33 H10         5.1173    2.7606   -1.8995 H         1 <1>         0.1405
     34 H11         2.6396   -0.7448   -1.0631 H         1 <1>         0.0880
     35 H12         3.5270   -0.6393    0.4773 H         1 <1>         0.0854
     36 H13         1.7843   -0.9040    0.4909 H         1 <1>         0.0837
     37 H14        -2.8679    2.6974   -1.9243 H         1 <1>         0.0486
     38 H15        -2.3548    0.9931   -1.9380 H         1 <1>         0.0591
     39 H16        -3.9846    1.4064   -1.4204 H         1 <1>         0.0489
     40 H17        -2.5333    0.9148    0.5517 H         1 <1>         0.1024
     41 H18        -3.0438    2.6228    0.5688 H         1 <1>         0.1029
@<TRIPOS>BOND
     1    1    3 ar
     2    1    4 ar
     3    2    5 ar
     4    2    6 ar
     5    3    7 ar
     6    4    8 ar
     7    5    9 ar
     8    6   10 ar
     9    7   11 ar
    10    8   11 ar
    11    9   13 ar
    12   10   13 ar
    13   11   14 1
    14   12   14 1
    15   12   15 2
    16   12   16 1
    17   13   21 1
    18   14   20 2
    19   15   17 1
    20   15   21 1
    21   16   22 2
    22   16   23 1
    23   18   19 1
    24   19   23 1
    25   20   21 1
    26    1   24 1
    27    2   25 1
    28    3   26 1
    29    4   27 1
    30    5   28 1
    31    6   29 1
    32    7   30 1
    33    8   31 1
    34    9   32 1
    35   10   33 1
    36   17   34 1
    37   17   35 1
    38   17   36 1
    39   18   37 1
    40   18   38 1
    41   18   39 1
    42   19   40 1
    43   19   41 1
@<TRIPOS>Similarity
1.4284
@<TRIPOS>ShapeSim
0.8968
@<TRIPOS>PharmSim
0.5316
# END
# Name:		AG-690/10678060
# Created and modified by SHAFTS on Mon Jul  5 00:36:42 2010

# 

@<TRIPOS>MOLECULE
AG-690/10678060
   46    49     0
SMALL
USER_CHARGE


@<TRIPOS>ATOM
      1 C1         -2.6434    0.5228    0.0258 C.ar      1 <1>        -0.1076
      2 C2         -2.3709    1.7478    0.6347 C.ar      1 <1>        -0.1017
      3 C3         -1.6175   -0.1928   -0.5915 C.ar      1 <1>        -0.1009
      4 C4         -1.0724    2.2573    0.6261 C.ar      1 <1>        -0.0794
      5 C5         -0.3189    0.3167   -0.6000 C.ar      1 <1>        -0.0777
      6 C6          5.3598    1.0089    1.0022 C.ar      1 <1>        -0.0645
      7 C7          5.6309    2.1932   -1.0862 C.ar      1 <1>        -0.0752
      8 C8         -0.0635    4.8598   -1.0184 C.ar      1 <1>        -0.0672
      9 C9          0.9643    5.5121    1.0685 C.ar      1 <1>        -0.0832
     10 C10         6.7135    0.6731    0.9874 C.ar      1 <1>        -0.0926
     11 C11         6.9846    1.8575   -1.1009 C.ar      1 <1>        -0.0990
     12 C12        -0.8305    6.0246   -1.0047 C.ar      1 <1>        -0.0500
     13 C13         0.1973    6.6771    1.0821 C.ar      1 <1>        -0.0675
     14 C14        -0.0465    1.5418    0.0088 C.ar      1 <1>        -0.0414
     15 C15         0.8340    4.6034    0.0184 C.ar      1 <1>        -0.0506
     16 C16         4.8185    1.7690   -0.0346 C.ar      1 <1>        -0.0171
     17 C17         7.5259    1.0974   -0.0641 C.ar      1 <1>        -0.1149
     18 C18        -0.7001    6.9333    0.0454 C.ar      1 <1>        -0.0126
     19 C19         1.2904    2.0661   -0.0003 C.2       1 <1>        -0.0014
     20 C20         1.6267    3.3993    0.0043 C.2       1 <1>        -0.0208
     21 C21         3.4182    2.1163   -0.0195 C.2       1 <1>         0.0145
     22 C22         8.9732    0.7379   -0.0800 C.3       1 <1>        -0.0424
     23 C23        -2.3462    8.2692   -1.0324 C.3       1 <1>         0.0239
     24 N1          2.4101    1.2727   -0.0148 N.2       1 <1>        -0.3621
     25 N2          2.9929    3.4156   -0.0077 N.pl3     1 <1>        -0.3273
     26 O1         -1.4486    8.0701    0.0586 O.3       1 <1>        -0.4173
     27 H1         -3.6541    0.1253    0.0332 H         1 <1>         0.1139
     28 H2         -3.1693    2.3045    1.1164 H         1 <1>         0.1154
     29 H3         -1.8296   -1.1472   -1.0644 H         1 <1>         0.1158
     30 H4         -0.8760    3.2137    1.1051 H         1 <1>         0.1229
     31 H5          0.4698   -0.2533   -1.0854 H         1 <1>         0.1278
     32 H6          4.7395    0.6704    1.8287 H         1 <1>         0.1436
     33 H7          5.2239    2.7866   -1.9015 H         1 <1>         0.1187
     34 H8         -0.1766    4.1612   -1.8441 H         1 <1>         0.1447
     35 H9          1.6595    5.3267    1.8840 H         1 <1>         0.1281
     36 H10         7.1268    0.0803    1.7991 H         1 <1>         0.1236
     37 H11         7.6099    2.1925   -1.9242 H         1 <1>         0.1205
     38 H12        -1.5279    6.2188   -1.8151 H         1 <1>         0.1335
     39 H13         0.3032    7.3812    1.9029 H         1 <1>         0.1137
     40 H14         9.1244   -0.2154   -0.6012 H         1 <1>         0.0581
     41 H15         9.5699    1.5087   -0.5848 H         1 <1>         0.0550
     42 H16         9.3718    0.6445    0.9388 H         1 <1>         0.0540
     43 H17        -2.8807    9.2127   -0.8978 H         1 <1>         0.1224
     44 H18        -3.0558    7.4392   -1.0778 H         1 <1>         0.0890
     45 H19        -1.7730    8.3071   -1.9618 H         1 <1>         0.0896
     46 H20         3.5821    4.2384   -0.0083 H         1 <1>         0.3456
@<TRIPOS>BOND
     1    1    2 ar
     2    1    3 ar
     3    2    4 ar
     4    3    5 ar
     5    4   14 ar
     6    5   14 ar
     7    6   10 ar
     8    6   16 ar
     9    7   11 ar
    10    7   16 ar
    11    8   12 ar
    12    8   15 ar
    13    9   13 ar
    14    9   15 ar
    15   10   17 ar
    16   11   17 ar
    17   12   18 ar
    18   13   18 ar
    19   14   19 1
    20   15   20 1
    21   16   21 1
    22   17   22 1
    23   18   26 1
    24   19   20 2
    25   19   24 1
    26   20   25 1
    27   21   24 2
    28   21   25 1
    29   23   26 1
    30    1   27 1
    31    2   28 1
    32    3   29 1
    33    4   30 1
    34    5   31 1
    35    6   32 1
    36    7   33 1
    37    8   34 1
    38    9   35 1
    39   10   36 1
    40   11   37 1
    41   12   38 1
    42   13   39 1
    43   22   40 1
    44   22   41 1
    45   22   42 1
    46   23   43 1
    47   23   44 1
    48   23   45 1
    49   25   46 1
@<TRIPOS>Similarity
1.4282
@<TRIPOS>ShapeSim
0.9103
@<TRIPOS>PharmSim
0.5179
# END
# Name:		AG-690/10687051
# Created and modified by SHAFTS on Mon Jul  5 00:36:42 2010

# 

@<TRIPOS>MOLECULE
AG-690/10687051
   43    46     0
SMALL
USER_CHARGE


@<TRIPOS>ATOM
      1 C1         -2.6436    0.5230    0.0269 C.ar      1 <1>        -0.1076
      2 C2         -2.3710    1.7480    0.6355 C.ar      1 <1>        -0.1009
      3 C3         -1.6179   -0.1927   -0.5905 C.ar      1 <1>        -0.1018
      4 C4         -1.0725    2.2575    0.6267 C.ar      1 <1>        -0.0777
      5 C5         -0.3193    0.3167   -0.5993 C.ar      1 <1>        -0.0794
      6 C6         -0.0635    4.8597   -1.0182 C.ar      1 <1>        -0.0734
      7 C7          0.9646    5.5121    1.0684 C.ar      1 <1>        -0.0765
      8 C8          5.3597    1.0086    1.0018 C.ar      1 <1>        -0.0632
      9 C9          5.6308    2.1934   -1.0862 C.ar      1 <1>        -0.0527
     10 C10        -0.8305    6.0246   -1.0046 C.ar      1 <1>        -0.0545
     11 C11         0.1977    6.6772    1.0819 C.ar      1 <1>        -0.0623
     12 C12         6.7135    0.6733    0.9874 C.ar      1 <1>        -0.0754
     13 C13         6.9847    1.8580   -1.1006 C.ar      1 <1>        -0.0692
     14 C14        -0.0466    1.5418    0.0093 C.ar      1 <1>        -0.0412
     15 C15         0.8340    4.6034    0.0184 C.ar      1 <1>        -0.0495
     16 C16         4.8183    1.7687   -0.0350 C.ar      1 <1>        -0.0093
     17 C17        -0.6998    6.9334    0.0454 C.ar      1 <1>        -0.0124
     18 C18         7.5260    1.0980   -0.0637 C.ar      1 <1>        -0.0380
     19 C19         1.2902    2.0660   -0.0001 C.2       1 <1>         0.0003
     20 C20         1.6266    3.3992    0.0043 C.2       1 <1>        -0.0192
     21 C21         3.4181    2.1160   -0.0196 C.2       1 <1>         0.0181
     22 C22        -2.3460    8.2693   -1.0323 C.3       1 <1>         0.0241
     23 N1          2.4099    1.2725   -0.0147 N.2       1 <1>        -0.3605
     24 N2          2.9929    3.4154   -0.0079 N.pl3     1 <1>        -0.3257
     25 O1         -1.4483    8.0702    0.0586 O.3       1 <1>        -0.4172
     26 Br1         9.3613    0.6469   -0.0819 Br        1 <1>        -0.1088
     27 H1         -3.6544    0.1256    0.0345 H         1 <1>         0.1140
     28 H2         -3.1692    2.3049    1.1173 H         1 <1>         0.1160
     29 H3         -1.8302   -1.1471   -1.0633 H         1 <1>         0.1152
     30 H4         -0.8759    3.2140    1.1055 H         1 <1>         0.1279
     31 H5          0.4693   -0.2535   -1.0848 H         1 <1>         0.1235
     32 H6         -0.1769    4.1611   -1.8438 H         1 <1>         0.1344
     33 H7          1.6599    5.3268    1.8838 H         1 <1>         0.1396
     34 H8          4.7394    0.6698    1.8284 H         1 <1>         0.1291
     35 H9          5.2238    2.7868   -1.9015 H         1 <1>         0.1532
     36 H10        -1.5280    6.2188   -1.8149 H         1 <1>         0.1307
     37 H11         0.3038    7.3814    1.9026 H         1 <1>         0.1169
     38 H12         7.1199    0.0807    1.8030 H         1 <1>         0.1384
     39 H13         7.6044    2.1978   -1.9266 H         1 <1>         0.1412
     40 H14        -2.8804    9.2128   -0.8978 H         1 <1>         0.0896
     41 H15        -3.0557    7.4394   -1.0775 H         1 <1>         0.1224
     42 H16        -1.7730    8.3071   -1.9618 H         1 <1>         0.0903
     43 H17         3.5821    4.2382   -0.0087 H         1 <1>         0.3514
@<TRIPOS>BOND
     1    1    2 ar
     2    1    3 ar
     3    2    4 ar
     4    3    5 ar
     5    4   14 ar
     6    5   14 ar
     7    6   10 ar
     8    6   15 ar
     9    7   11 ar
    10    7   15 ar
    11    8   12 ar
    12    8   16 ar
    13    9   13 ar
    14    9   16 ar
    15   10   17 ar
    16   11   17 ar
    17   12   18 ar
    18   13   18 ar
    19   14   19 1
    20   15   20 1
    21   16   21 1
    22   17   25 1
    23   18   26 1
    24   19   20 2
    25   19   23 1
    26   20   24 1
    27   21   23 2
    28   21   24 1
    29   22   25 1
    30    1   27 1
    31    2   28 1
    32    3   29 1
    33    4   30 1
    34    5   31 1
    35    6   32 1
    36    7   33 1
    37    8   34 1
    38    9   35 1
    39   10   36 1
    40   11   37 1
    41   12   38 1
    42   13   39 1
    43   22   40 1
    44   22   41 1
    45   22   42 1
    46   24   43 1
@<TRIPOS>Similarity
1.4279
@<TRIPOS>ShapeSim
0.9100
@<TRIPOS>PharmSim
0.5179
# END
# Name:		AK-968/41017856
# Created and modified by SHAFTS on Mon Jul  5 00:36:42 2010

# 

@<TRIPOS>MOLECULE
AK-968/41017856
   45    49     0
SMALL
USER_CHARGE


@<TRIPOS>ATOM
      1 C1          7.0013    2.3403   -0.6515 C.ar      1 <1>        -0.0759
      2 C2          5.6417    2.6516   -0.6372 C.ar      1 <1>        -0.0414
      3 C3          7.4525    1.1591   -0.0626 C.ar      1 <1>        -0.0743
      4 C4          5.1846    0.6006    0.5551 C.ar      1 <1>        -0.0338
      5 C5          2.3517    1.1943   -0.0201 C.2       1 <1>        -0.0006
      6 C6          1.1975    1.9387   -0.0031 C.2       1 <1>         0.0366
      7 C7          4.7334    1.7819   -0.0338 C.ar      1 <1>         0.0031
      8 C8          6.5442    0.2892    0.5407 C.ar      1 <1>        -0.0271
      9 C9          1.6406    3.2749    0.0063 C.2       1 <1>        -0.0024
     10 C10        -0.1346    1.4144    0.0034 C.2       1 <1>         0.0868
     11 C11        -0.0331    7.0643    1.3213 C.3       1 <1>        -0.0671
     12 C12        -1.8470    5.8676    0.0712 C.3       1 <1>        -0.0686
     13 C13        -0.0506    7.0831   -1.1850 C.3       1 <1>        -0.0685
     14 C14        -0.0925    4.5592    1.2917 C.3       1 <1>        -0.0434
     15 C15         1.7063    5.7834    0.0467 C.3       1 <1>        -0.0437
     16 C16        -0.1243    4.5756   -1.2150 C.3       1 <1>        -0.0460
     17 C17        -0.9525    5.8348    1.3184 C.3       1 <1>        -0.0675
     18 C18         0.8466    7.0596    0.0632 C.3       1 <1>        -0.0676
     19 C19        -0.9774    5.8562   -1.1938 C.3       1 <1>        -0.0681
     20 C20         0.8149    4.5066    0.0253 C.3       1 <1>        -0.0119
     21 N1          2.9725    3.3765   -0.0038 N.2       1 <1>        -0.3176
     22 N2          3.3760    2.0948   -0.0196 N.pl3     1 <1>        -0.2853
     23 O1         -1.1613    2.1213    0.0195 O.2       1 <1>        -0.4591
     24 Br1         7.1556   -1.3106    1.3398 Br        1 <1>        -0.0962
     25 H1          7.7086    3.0175   -1.1215 H         1 <1>         0.1429
     26 H2          5.3035    3.5759   -1.0995 H         1 <1>         0.1523
     27 H3          8.5153    0.9312   -0.0819 H         1 <1>         0.1399
     28 H4          4.4738   -0.0763    1.0247 H         1 <1>         0.1461
     29 H5          2.5221    0.1255   -0.0321 H         1 <1>         0.2295
     30 H6         -0.2702    0.3002   -0.0061 H         1 <1>         0.2537
     31 H7         -0.6334    7.9818    1.3559 H         1 <1>         0.0501
     32 H8          0.5956    7.0616    2.2199 H         1 <1>         0.0436
     33 H9         -2.5231    5.0040    0.0705 H         1 <1>         0.0445
     34 H10        -2.4775    6.7650    0.0848 H         1 <1>         0.0429
     35 H11        -0.6484    8.0028   -1.1982 H         1 <1>         0.0429
     36 H12         0.5677    7.0922   -2.0910 H         1 <1>         0.0446
     37 H13         0.5252    4.5134    2.1990 H         1 <1>         0.0761
     38 H14        -0.7449    3.6758    1.3231 H         1 <1>         0.0445
     39 H15         2.3645    5.7954   -0.8325 H         1 <1>         0.0450
     40 H16         2.3664    5.7700    0.9245 H         1 <1>         0.0736
     41 H17        -0.7792    3.6943   -1.2442 H         1 <1>         0.0543
     42 H18         0.4712    4.5467   -2.1373 H         1 <1>         0.0536
     43 H19        -1.5764    5.8392    2.2193 H         1 <1>         0.0536
     44 H20         1.4977    7.9410    0.0656 H         1 <1>         0.0536
     45 H21        -1.6184    5.8852   -2.0820 H         1 <1>         0.0526
@<TRIPOS>BOND
     1    1    2 ar
     2    1    3 ar
     3    2    7 ar
     4    3    8 ar
     5    4    7 ar
     6    4    8 ar
     7    5    6 2
     8    5   22 1
     9    6    9 1
    10    6   10 1
    11    7   22 1
    12    8   24 1
    13    9   20 1
    14    9   21 2
    15   10   23 2
    16   11   17 1
    17   11   18 1
    18   12   17 1
    19   12   19 1
    20   13   18 1
    21   13   19 1
    22   14   17 1
    23   14   20 1
    24   15   18 1
    25   15   20 1
    26   16   19 1
    27   16   20 1
    28   21   22 1
    29    1   25 1
    30    2   26 1
    31    3   27 1
    32    4   28 1
    33    5   29 1
    34   10   30 1
    35   11   31 1
    36   11   32 1
    37   12   33 1
    38   12   34 1
    39   13   35 1
    40   13   36 1
    41   14   37 1
    42   14   38 1
    43   15   39 1
    44   15   40 1
    45   16   41 1
    46   16   42 1
    47   17   43 1
    48   18   44 1
    49   19   45 1
@<TRIPOS>Similarity
1.4275
@<TRIPOS>ShapeSim
0.8370
@<TRIPOS>PharmSim
0.5906
# END
# Name:		AE-848/32310059
# Created and modified by SHAFTS on Mon Jul  5 00:36:42 2010

# 

@<TRIPOS>MOLECULE
AE-848/32310059
   50    53     0
SMALL
USER_CHARGE


@<TRIPOS>ATOM
      1 C1         -1.5333   -1.8872   -0.6127 C.ar      1 <1>        -0.0990
      2 C2         -1.0085   -3.0387   -0.0261 C.ar      1 <1>        -0.0974
      3 C3         -0.7975   -0.7022   -0.6034 C.ar      1 <1>        -0.0743
      4 C4          1.3616    5.3249    0.6218 C.ar      1 <1>        -0.0878
      5 C5         -0.5349    4.4243   -0.5738 C.ar      1 <1>        -0.0785
      6 C6          5.4705    1.8863   -1.0859 C.ar      1 <1>        -0.0710
      7 C7          5.3327    0.6766    1.0008 C.ar      1 <1>        -0.0729
      8 C8          0.2521   -3.0052    0.5701 C.ar      1 <1>        -0.0618
      9 C9          0.7575    6.5820    0.6334 C.ar      1 <1>        -0.0674
     10 C10        -1.1391    5.6815   -0.5624 C.ar      1 <1>        -0.0549
     11 C11         6.8531    1.7030   -1.1010 C.ar      1 <1>        -0.0559
     12 C12         6.7153    0.4931    0.9858 C.ar      1 <1>        -0.0645
     13 C13         2.7278    2.8341   -0.0063 C.ar      1 <1>        -0.0433
     14 C14         0.5602    1.7922    0.0057 C.ar      1 <1>        -0.0428
     15 C15         0.7155    4.2460    0.0182 C.ar      1 <1>        -0.0720
     16 C16         4.7102    1.3732   -0.0349 C.ar      1 <1>        -0.0352
     17 C17         0.4631   -0.6688   -0.0072 C.ar      1 <1>        -0.0025
     18 C18         1.3417    2.9422    0.0064 C.ar      1 <1>        -0.0653
     19 C19        -0.4929    6.7604    0.0412 C.ar      1 <1>        -0.0138
     20 C20         7.4755    1.0063   -0.0652 C.ar      1 <1>        -0.0150
     21 C21         0.9880   -1.8203    0.5795 C.ar      1 <1>        -0.0075
     22 C22         3.2791    1.5629   -0.0192 C.ar      1 <1>        -0.0130
     23 C23         1.2084    0.5677   -0.0080 C.ar      1 <1>        -0.0055
     24 C24        -2.3609    8.0991   -0.5703 C.3       1 <1>         0.0240
     25 C25         9.3961    0.1054    1.0099 C.3       1 <1>         0.0237
     26 N1          2.5525    0.4228   -0.0205 N.ar      1 <1>        -0.3676
     27 O1          2.2168   -1.8157    1.1708 O.3       1 <1>        -0.4212
     28 O2         -1.0823    7.9869    0.0531 O.3       1 <1>        -0.4175
     29 O3          8.8244    0.8269   -0.0804 O.3       1 <1>        -0.4181
     30 H1         -2.5148   -1.9137   -1.0771 H         1 <1>         0.1186
     31 H2         -1.5814   -3.9613   -0.0333 H         1 <1>         0.1249
     32 H3         -1.2212    0.1866   -1.0650 H         1 <1>         0.1309
     33 H4          2.3364    5.2016    1.0876 H         1 <1>         0.1335
     34 H5         -1.0514    3.5933   -1.0483 H         1 <1>         0.1385
     35 H6          4.9998    2.4315   -1.9005 H         1 <1>         0.1379
     36 H7          4.7539    0.2705    1.8270 H         1 <1>         0.1507
     37 H8          0.6545   -3.9063    1.0253 H         1 <1>         0.1259
     38 H9          1.2656    7.4185    1.1052 H         1 <1>         0.1146
     39 H10        -2.1132    5.8145   -1.0249 H         1 <1>         0.1312
     40 H11         7.4400    2.1048   -1.9224 H         1 <1>         0.1286
     41 H12         7.1948   -0.0505    1.7953 H         1 <1>         0.1127
     42 H13         3.3590    3.7185   -0.0071 H         1 <1>         0.1329
     43 H14        -0.5246    1.8525    0.0165 H         1 <1>         0.1332
     44 H15        -2.7174    9.1289   -0.4897 H         1 <1>         0.1224
     45 H16        -3.0652    7.4194   -0.0840 H         1 <1>         0.0897
     46 H17        -2.2670    7.8299   -1.6250 H         1 <1>         0.0897
     47 H18        10.4780    0.0346    0.8736 H         1 <1>         0.1216
     48 H19         8.9577   -0.8947    1.0559 H         1 <1>         0.0895
     49 H20         9.1824    0.6379    1.9396 H         1 <1>         0.0897
     50 H21         2.4199   -2.6951    1.5252 H         1 <1>         0.3613
@<TRIPOS>BOND
     1    1    2 ar
     2    1    3 ar
     3    2    8 ar
     4    3   17 ar
     5    4    9 ar
     6    4   15 ar
     7    5   10 ar
     8    5   15 ar
     9    6   11 ar
    10    6   16 ar
    11    7   12 ar
    12    7   16 ar
    13    8   21 ar
    14    9   19 ar
    15   10   19 ar
    16   11   20 ar
    17   12   20 ar
    18   13   18 ar
    19   13   22 ar
    20   14   18 ar
    21   14   23 ar
    22   15   18 1
    23   16   22 1
    24   17   21 ar
    25   17   23 1
    26   19   28 1
    27   20   29 1
    28   21   27 1
    29   22   26 ar
    30   23   26 ar
    31   24   28 1
    32   25   29 1
    33    1   30 1
    34    2   31 1
    35    3   32 1
    36    4   33 1
    37    5   34 1
    38    6   35 1
    39    7   36 1
    40    8   37 1
    41    9   38 1
    42   10   39 1
    43   11   40 1
    44   12   41 1
    45   13   42 1
    46   14   43 1
    47   24   44 1
    48   24   45 1
    49   24   46 1
    50   25   47 1
    51   25   48 1
    52   25   49 1
    53   27   50 1
@<TRIPOS>Similarity
1.4267
@<TRIPOS>ShapeSim
0.8848
@<TRIPOS>PharmSim
0.5419
# END
# Name:		AP-960/41299812
# Created and modified by SHAFTS on Mon Jul  5 00:36:42 2010

# 

@<TRIPOS>MOLECULE
AP-960/41299812
   40    43     0
SMALL
USER_CHARGE


@<TRIPOS>ATOM
      1 C1         -0.4399    4.8035   -1.0017 C.ar      1 <1>        -0.0412
      2 C2          0.8568    5.3020    0.9749 C.ar      1 <1>        -0.0415
      3 C3          5.1346    0.9858    1.0072 C.ar      1 <1>        -0.0416
      4 C4          5.3712    1.9511   -1.1948 C.ar      1 <1>        -0.0411
      5 C5         -1.0599    6.0495   -0.9093 C.ar      1 <1>        -0.0515
      6 C6          0.2369    6.5481    1.0672 C.ar      1 <1>        -0.0516
      7 C7          6.5157    0.8040    1.0760 C.ar      1 <1>        -0.0529
      8 C8          6.7525    1.7694   -1.1260 C.ar      1 <1>        -0.0525
      9 C9          0.5184    4.4296   -0.0595 C.ar      1 <1>         0.0067
     10 C10         4.5622    1.5592   -0.1282 C.ar      1 <1>         0.0093
     11 C11        -0.7215    6.9219    0.1251 C.ar      1 <1>        -0.0014
     12 C12         7.3248    1.1958    0.0095 C.ar      1 <1>        -0.0034
     13 C13         0.9027    0.7509   -0.1244 C.2       1 <1>         0.0644
     14 C14         0.3750    1.9832   -0.0962 C.2       1 <1>         0.1057
     15 C15         2.3710    0.5697   -0.0982 C.2       1 <1>         0.1544
     16 C16         2.5824    3.0689   -0.3396 C.2       1 <1>         0.0689
     17 C17         0.0631   -0.4974   -0.1240 C.3       1 <1>        -0.0179
     18 C18        -1.4076   -0.1779   -0.3542 C.3       1 <1>        -0.0251
     19 C19        -1.7721    1.0645    0.4362 C.3       1 <1>         0.0420
     20 N1          1.1609    3.1391   -0.1555 N.pl3     1 <1>        -0.2340
     21 N2          3.1312    1.7480   -0.1993 N.am      1 <1>        -0.2170
     22 O1          2.8260   -0.5664    0.0441 O.2       1 <1>        -0.4465
     23 O2         -0.9958    2.1896    0.0183 O.3       1 <1>        -0.3628
     24 S1          3.5198    4.4149   -0.8377 S.2       1 <1>        -0.2464
     25 Cl1        -1.4866    8.4596    0.2389 Cl        1 <1>        -0.1297
     26 Cl2         9.0292    0.9715    0.0945 Cl        1 <1>        -0.1328
     27 H1         -0.7114    4.1313   -1.8116 H         1 <1>         0.1507
     28 H2          1.6022    5.0209    1.7144 H         1 <1>         0.1501
     29 H3          4.5135    0.6765    1.8440 H         1 <1>         0.1482
     30 H4          4.9357    2.3991   -2.0843 H         1 <1>         0.1489
     31 H5         -1.8047    6.3277   -1.6504 H         1 <1>         0.1469
     32 H6          0.5102    7.2179    1.8785 H         1 <1>         0.1468
     33 H7          6.9482    0.3560    1.9669 H         1 <1>         0.1452
     34 H8          7.3708    2.0793   -1.9645 H         1 <1>         0.1455
     35 H9          0.4206   -1.1649   -0.9178 H         1 <1>         0.0743
     36 H10         0.1664   -1.0326    0.8269 H         1 <1>         0.0824
     37 H11        -1.6062   -0.0367   -1.4214 H         1 <1>         0.0729
     38 H12        -2.0173   -1.0223   -0.0089 H         1 <1>         0.0607
     39 H13        -2.8370    1.3077    0.3361 H         1 <1>         0.1165
     40 H14        -1.5708    0.9034    1.5003 H         1 <1>         0.1505
@<TRIPOS>BOND
     1    1    5 ar
     2    1    9 ar
     3    2    6 ar
     4    2    9 ar
     5    3    7 ar
     6    3   10 ar
     7    4    8 ar
     8    4   10 ar
     9    5   11 ar
    10    6   11 ar
    11    7   12 ar
    12    8   12 ar
    13    9   20 1
    14   10   21 1
    15   11   25 1
    16   12   26 1
    17   13   14 2
    18   13   15 1
    19   13   17 1
    20   14   20 1
    21   14   23 1
    22   15   21 am
    23   15   22 2
    24   16   20 1
    25   16   21 1
    26   16   24 2
    27   17   18 1
    28   18   19 1
    29   19   23 1
    30    1   27 1
    31    2   28 1
    32    3   29 1
    33    4   30 1
    34    5   31 1
    35    6   32 1
    36    7   33 1
    37    8   34 1
    38   17   35 1
    39   17   36 1
    40   18   37 1
    41   18   38 1
    42   19   39 1
    43   19   40 1
@<TRIPOS>Similarity
1.4259
@<TRIPOS>ShapeSim
0.9343
@<TRIPOS>PharmSim
0.4916
# END
# Name:		AE-842/32631041
# Created and modified by SHAFTS on Mon Jul  5 00:36:42 2010

# 

@<TRIPOS>MOLECULE
AE-842/32631041
   45    47     0
SMALL
USER_CHARGE


@<TRIPOS>ATOM
      1 C1          7.5566    1.1241   -0.0635 C.ar      1 <1>        -0.1019
      2 C2         -0.6721    6.9541    0.0448 C.ar      1 <1>        -0.1017
      3 C3          6.7496    0.6902    0.9882 C.ar      1 <1>        -0.0990
      4 C4          7.0056    1.8759   -1.1012 C.ar      1 <1>        -0.0970
      5 C5         -0.8169    6.0459   -1.0039 C.ar      1 <1>        -0.0991
      6 C6          0.2232    6.6867    1.0805 C.ar      1 <1>        -0.0967
      7 C7          5.3915    1.0078    1.0021 C.ar      1 <1>        -0.0822
      8 C8          5.6474    2.1935   -1.0873 C.ar      1 <1>        -0.0791
      9 C9         -0.0665    4.8702   -1.0169 C.ar      1 <1>        -0.0826
     10 C10         0.9736    5.5109    1.0675 C.ar      1 <1>        -0.0790
     11 C11         4.8403    1.7595   -0.0357 C.ar      1 <1>        -0.0441
     12 C12         0.8288    4.6027    0.0188 C.ar      1 <1>        -0.0445
     13 C13         2.3411    1.2533   -0.0135 C.2       1 <1>         0.0999
     14 C14         1.1848    2.0717    0.0026 C.2       1 <1>         0.0998
     15 C15         3.4362    2.0887   -0.0206 C.2       1 <1>         0.0036
     16 C16         1.6085    3.3824    0.0047 C.2       1 <1>         0.0033
     17 C17         2.3990   -0.1827   -0.0209 C.2       1 <1>         0.1966
     18 C18        -0.1891    1.6498    0.0160 C.2       1 <1>         0.1964
     19 C19         3.8168    4.5638   -0.0119 C.3       1 <1>         0.0048
     20 C20         1.7607   -2.1497   -1.2383 C.3       1 <1>         0.0384
     21 C21        -1.7003   -0.0798   -0.6789 C.3       1 <1>         0.0384
     22 N1          2.9789    3.3805   -0.0097 N.pl3     1 <1>        -0.3446
     23 O1          2.9474   -0.8830    0.8544 O.2       1 <1>        -0.4334
     24 O2         -1.1287    2.2825    0.5396 O.2       1 <1>        -0.4334
     25 O3          1.7716   -0.7231   -1.1181 O.3       1 <1>        -0.3476
     26 O4         -0.3702    0.4470   -0.6242 O.3       1 <1>        -0.3476
     27 H1          8.6143    0.8773   -0.0739 H         1 <1>         0.1221
     28 H2         -1.2560    7.8699    0.0546 H         1 <1>         0.1224
     29 H3          7.1790    0.1047    1.7960 H         1 <1>         0.1217
     30 H4          7.6342    2.2147   -1.9196 H         1 <1>         0.1233
     31 H5         -1.5142    6.2543   -1.8101 H         1 <1>         0.1221
     32 H6          0.3367    7.3944    1.8966 H         1 <1>         0.1237
     33 H7          4.7762    0.6643    1.8302 H         1 <1>         0.1245
     34 H8          5.2327    2.7794   -1.9041 H         1 <1>         0.1317
     35 H9         -0.1888    4.1735   -1.8428 H         1 <1>         0.1249
     36 H10         1.6664    5.3165    1.8827 H         1 <1>         0.1320
     37 H11         4.0016    4.8443   -1.0523 H         1 <1>         0.1197
     38 H12         3.3057    5.3730    0.5170 H         1 <1>         0.1110
     39 H13         4.7581    4.3410    0.4981 H         1 <1>         0.1117
     40 H14         1.2318   -2.4351   -2.1510 H         1 <1>         0.1267
     41 H15         1.2666   -2.5859   -0.3666 H         1 <1>         0.0975
     42 H16         2.7908   -2.5101   -1.2891 H         1 <1>         0.0965
     43 H17        -1.6938   -1.0330   -1.2133 H         1 <1>         0.1267
     44 H18        -2.3543    0.6317   -1.1891 H         1 <1>         0.0975
     45 H19        -2.0620   -0.2384    0.3398 H         1 <1>         0.0965
@<TRIPOS>BOND
     1    1    3 ar
     2    1    4 ar
     3    2    5 ar
     4    2    6 ar
     5    3    7 ar
     6    4    8 ar
     7    5    9 ar
     8    6   10 ar
     9    7   11 ar
    10    8   11 ar
    11    9   12 ar
    12   10   12 ar
    13   11   15 1
    14   12   16 1
    15   13   14 1
    16   13   15 2
    17   13   17 1
    18   14   16 2
    19   14   18 1
    20   15   22 1
    21   16   22 1
    22   17   23 2
    23   17   25 1
    24   18   24 2
    25   18   26 1
    26   19   22 1
    27   20   25 1
    28   21   26 1
    29    1   27 1
    30    2   28 1
    31    3   29 1
    32    4   30 1
    33    5   31 1
    34    6   32 1
    35    7   33 1
    36    8   34 1
    37    9   35 1
    38   10   36 1
    39   19   37 1
    40   19   38 1
    41   19   39 1
    42   20   40 1
    43   20   41 1
    44   20   42 1
    45   21   43 1
    46   21   44 1
    47   21   45 1
@<TRIPOS>Similarity
1.4259
@<TRIPOS>ShapeSim
0.8981
@<TRIPOS>PharmSim
0.5278
# END
# Name:		AE-848/08335002
# Created and modified by SHAFTS on Mon Jul  5 00:36:42 2010

# 

@<TRIPOS>MOLECULE
AE-848/08335002
   35    38     0
SMALL
USER_CHARGE


@<TRIPOS>ATOM
      1 C1          7.5075    1.0082   -0.0644 C.ar      1 <1>        -0.1071
      2 C2          6.6795    0.6161    0.9873 C.ar      1 <1>        -0.0998
      3 C3          6.9958    1.7885   -1.1013 C.ar      1 <1>        -0.1027
      4 C4         -0.8633    5.9457   -1.0047 C.ar      1 <1>        -0.0873
      5 C5          5.3398    1.0043    1.0023 C.ar      1 <1>        -0.0771
      6 C6          5.6561    2.1766   -1.0864 C.ar      1 <1>        -0.0815
      7 C7         -0.0369    4.8222   -1.0183 C.ar      1 <1>        -0.0672
      8 C8         -0.7800    6.8601    0.0454 C.ar      1 <1>        -0.0780
      9 C9          0.9558    5.5271    1.0685 C.ar      1 <1>        -0.0428
     10 C10         4.8281    1.7845   -0.0345 C.ar      1 <1>        -0.0431
     11 C11         0.8726    4.6128    0.0183 C.ar      1 <1>        -0.0075
     12 C12         0.1295    6.6507    1.0821 C.ar      1 <1>        -0.0288
     13 C13         3.4536    2.1827   -0.0196 C.2       1 <1>         0.0051
     14 C14         2.3739    1.3319   -0.0146 C.2       1 <1>        -0.0022
     15 C15         1.7303    3.4470    0.0040 C.2       1 <1>         0.0404
     16 C16         2.1590   -0.0723   -0.0208 C.2       1 <1>        -0.0573
     17 C17         0.8962   -0.5435   -0.0111 C.2       1 <1>        -0.0848
     18 C18        -0.2518    0.3525    0.0055 C.2       1 <1>        -0.0699
     19 C19        -0.0466    1.6805    0.0111 C.2       1 <1>        -0.0301
     20 N1          3.0454    3.4941   -0.0081 N.2       1 <1>        -0.3508
     21 N2          1.2604    2.1582    0.0010 N.pl3     1 <1>        -0.3084
     22 Br1         0.2398    7.8898    2.5052 Br        1 <1>        -0.1043
     23 H1          8.5509    0.7069   -0.0757 H         1 <1>         0.1149
     24 H2          7.0779    0.0097    1.7954 H         1 <1>         0.1178
     25 H3          7.6410    2.0947   -1.9194 H         1 <1>         0.1171
     26 H4         -1.5717    6.1089   -1.8118 H         1 <1>         0.1332
     27 H5          4.7069    0.6905    1.8292 H         1 <1>         0.1293
     28 H6          5.2725    2.7850   -1.9021 H         1 <1>         0.1216
     29 H7         -0.1130    4.1192   -1.8447 H         1 <1>         0.1295
     30 H8         -1.4312    7.7304    0.0409 H         1 <1>         0.1381
     31 H9          1.6657    5.3627    1.8769 H         1 <1>         0.1559
     32 H10         3.0036   -0.7525   -0.0337 H         1 <1>         0.1546
     33 H11         0.7016   -1.6106   -0.0161 H         1 <1>         0.1328
     34 H12        -1.2482   -0.0725    0.0123 H         1 <1>         0.1441
     35 H13        -0.8621    2.3934    0.0228 H         1 <1>         0.1961
@<TRIPOS>BOND
     1    1    2 ar
     2    1    3 ar
     3    2    5 ar
     4    3    6 ar
     5    4    7 ar
     6    4    8 ar
     7    5   10 ar
     8    6   10 ar
     9    7   11 ar
    10    8   12 ar
    11    9   11 ar
    12    9   12 ar
    13   10   13 1
    14   11   15 1
    15   12   22 1
    16   13   14 2
    17   13   20 1
    18   14   16 1
    19   14   21 1
    20   15   20 2
    21   15   21 1
    22   16   17 2
    23   17   18 1
    24   18   19 2
    25   19   21 1
    26    1   23 1
    27    2   24 1
    28    3   25 1
    29    4   26 1
    30    5   27 1
    31    6   28 1
    32    7   29 1
    33    8   30 1
    34    9   31 1
    35   16   32 1
    36   17   33 1
    37   18   34 1
    38   19   35 1
@<TRIPOS>Similarity
1.4256
@<TRIPOS>ShapeSim
0.9282
@<TRIPOS>PharmSim
0.4973
# END
# Name:		AI-346/11356021
# Created and modified by SHAFTS on Mon Jul  5 00:36:42 2010

# 

@<TRIPOS>MOLECULE
AI-346/11356021
   44    47     0
SMALL
USER_CHARGE


@<TRIPOS>ATOM
      1 C1         -0.6082    6.7379    0.4836 C.ar      1 <1>        -0.1066
      2 C2         -1.1534    5.9464   -0.5273 C.ar      1 <1>        -0.1036
      3 C3          0.6259    6.4042    1.0416 C.ar      1 <1>        -0.1044
      4 C4          5.2043    0.6765    0.7326 C.ar      1 <1>        -0.0694
      5 C5         -0.4647    4.8213   -0.9801 C.ar      1 <1>        -0.0937
      6 C6          1.3147    5.2789    0.5887 C.ar      1 <1>        -0.0955
      7 C7          6.5522    0.3247    0.7794 C.ar      1 <1>        -0.0610
      8 C8          7.0722    2.0594   -0.8260 C.ar      1 <1>        -0.0477
      9 C9          4.7983    1.7274   -0.0927 C.ar      1 <1>        -0.0246
     10 C10         0.7693    4.4875   -0.4221 C.ar      1 <1>        -0.0763
     11 C11         5.7209    2.4209   -0.8964 C.ar      1 <1>        -0.0730
     12 C12         7.4843    1.0159    0.0054 C.ar      1 <1>        -0.0100
     13 C13         3.3835    2.1127   -0.1662 C.2       1 <1>         0.0139
     14 C14         0.0069    1.4569    0.0275 C.2       1 <1>         0.1206
     15 C15         5.3014    3.5606   -1.7985 C.3       1 <1>        -0.0272
     16 C16         3.7962    3.5693   -2.0941 C.3       1 <1>        -0.0333
     17 C17         1.5174    3.2662   -0.9130 C.3       1 <1>         0.0359
     18 C18         3.0298    3.4338   -0.7888 C.3       1 <1>         0.0278
     19 C19         0.0227   -0.0402    0.2189 C.3       1 <1>         0.0642
     20 C20         9.1538   -0.4040    0.9285 C.3       1 <1>         0.0250
     21 N1          2.3890    1.3934    0.2464 N.2       1 <1>        -0.3102
     22 N2          1.2482    2.0482   -0.1308 N.am      1 <1>        -0.2657
     23 O1         -1.0591    2.0740    0.0181 O.2       1 <1>        -0.4693
     24 O2          8.8004    0.6711    0.0601 O.3       1 <1>        -0.4154
     25 H1         -1.1439    7.6148    0.8352 H         1 <1>         0.1159
     26 H2         -2.1138    6.2068   -0.9626 H         1 <1>         0.1176
     27 H3          1.0513    7.0208    1.8278 H         1 <1>         0.1153
     28 H4          4.4932    0.1314    1.3466 H         1 <1>         0.1466
     29 H5         -0.8974    4.2103   -1.7679 H         1 <1>         0.1207
     30 H6          2.2756    5.0266    1.0294 H         1 <1>         0.1127
     31 H7          6.8724   -0.4894    1.4241 H         1 <1>         0.1164
     32 H8          7.8085    2.5910   -1.4246 H         1 <1>         0.1335
     33 H9          5.5833    4.5028   -1.3123 H         1 <1>         0.0787
     34 H10         5.8443    3.5008   -2.7492 H         1 <1>         0.0785
     35 H11         3.5216    4.4958   -2.6102 H         1 <1>         0.0578
     36 H12         3.5547    2.7363   -2.7676 H         1 <1>         0.0660
     37 H13         1.1978    3.0702   -1.9586 H         1 <1>         0.1405
     38 H14         3.3049    4.2312   -0.0857 H         1 <1>         0.1106
     39 H15         0.0937   -0.2602    1.2784 H         1 <1>         0.0925
     40 H16         0.8770   -0.4549   -0.3054 H         1 <1>         0.0961
     41 H17        -0.8921   -0.4581   -0.1876 H         1 <1>         0.0968
     42 H18        10.2318   -0.5756    0.8771 H         1 <1>         0.1227
     43 H19         8.6157   -1.3071    0.6296 H         1 <1>         0.0905
     44 H20         8.8777   -0.1397    1.9521 H         1 <1>         0.0905
@<TRIPOS>BOND
     1    1    2 ar
     2    1    3 ar
     3    2    5 ar
     4    3    6 ar
     5    4    7 ar
     6    4    9 ar
     7    5   10 ar
     8    6   10 ar
     9    7   12 ar
    10    8   11 ar
    11    8   12 ar
    12    9   11 ar
    13    9   13 1
    14   10   17 1
    15   11   15 1
    16   12   24 1
    17   13   18 1
    18   13   21 2
    19   14   19 1
    20   14   22 am
    21   14   23 2
    22   15   16 1
    23   16   18 1
    24   17   18 1
    25   17   22 1
    26   20   24 1
    27   21   22 1
    28    1   25 1
    29    2   26 1
    30    3   27 1
    31    4   28 1
    32    5   29 1
    33    6   30 1
    34    7   31 1
    35    8   32 1
    36   15   33 1
    37   15   34 1
    38   16   35 1
    39   16   36 1
    40   17   37 1
    41   18   38 1
    42   19   39 1
    43   19   40 1
    44   19   41 1
    45   20   42 1
    46   20   43 1
    47   20   44 1
@<TRIPOS>Similarity
1.4248
@<TRIPOS>ShapeSim
0.8893
@<TRIPOS>PharmSim
0.5355
# END
# Name:		ZINC00381685
# Created and modified by SHAFTS on Mon Jul  5 00:36:42 2010

# 

@<TRIPOS>MOLECULE
ZINC00381685
   33    36     0
SMALL
USER_CHARGE


@<TRIPOS>ATOM
      1 C1         -0.4814    7.0726    0.0473 C.ar      1 <1>        -0.0993
      2 C2          0.3591    6.6696    1.0850 C.ar      1 <1>        -0.0955
      3 C3         -0.7570    6.2003   -1.0058 C.ar      1 <1>        -0.0952
      4 C4          0.9241    5.3944    1.0696 C.ar      1 <1>        -0.0785
      5 C5         -0.1920    4.9251   -1.0211 C.ar      1 <1>        -0.0745
      6 C6          5.3280    2.0228   -1.0881 C.ar      1 <1>        -0.0631
      7 C7          5.2341    0.8270    1.0091 C.ar      1 <1>        -0.0572
      8 C8          6.7156    1.8830   -1.1056 C.ar      1 <1>        -0.0636
      9 C9          6.6218    0.6872    0.9915 C.ar      1 <1>        -0.0602
     10 C10        -1.0728    0.5874    0.0358 C.2       1 <1>         0.0638
     11 C11         0.6485    4.5220    0.0165 C.ar      1 <1>        -0.0267
     12 C12         4.5871    1.4949   -0.0307 C.ar      1 <1>        -0.0124
     13 C13         7.3626    1.2152   -0.0659 C.ar      1 <1>        -0.0091
     14 C14         1.0203    0.7418    0.0266 C.2       1 <1>         0.1214
     15 C15         2.5835    3.0470   -0.0093 C.2       1 <1>         0.0181
     16 C16         1.2454    3.1742   -0.0003 C.2       1 <1>         0.0364
     17 C17         3.1077    1.6434   -0.0118 C.2       1 <1>         0.0297
     18 N1          0.0597   -0.1601    0.0435 N.2       1 <1>        -0.3082
     19 N2         -0.8982    1.9051    0.0156 N.2       1 <1>        -0.2974
     20 N3          2.3713    0.5701    0.0169 N.2       1 <1>        -0.2932
     21 N4          0.4554    2.0195    0.0149 N.pl3     1 <1>        -0.2227
     22 Cl1         9.0744    1.0416   -0.0884 Cl        1 <1>        -0.1340
     23 H1         -0.9222    8.0650    0.0598 H         1 <1>         0.1276
     24 H2          0.5729    7.3483    1.9056 H         1 <1>         0.1244
     25 H3         -1.4123    6.5135   -1.8132 H         1 <1>         0.1229
     26 H4          1.5774    5.0946    1.8856 H         1 <1>         0.1344
     27 H5         -0.4164    4.2566   -1.8490 H         1 <1>         0.1526
     28 H6          4.8340    2.5455   -1.9031 H         1 <1>         0.1447
     29 H7          4.6667    0.4114    1.8379 H         1 <1>         0.1576
     30 H8          7.2804    2.2988   -1.9363 H         1 <1>         0.1389
     31 H9          7.1122    0.1646    1.8088 H         1 <1>         0.1394
     32 H10        -2.0637    0.1586    0.0444 H         1 <1>         0.3125
     33 H11         3.2722    3.8834   -0.0213 H         1 <1>         0.1664
@<TRIPOS>BOND
     1    1    2 ar
     2    1    3 ar
     3    2    4 ar
     4    3    5 ar
     5    4   11 ar
     6    5   11 ar
     7    6    8 ar
     8    6   12 ar
     9    7    9 ar
    10    7   12 ar
    11    8   13 ar
    12    9   13 ar
    13   10   18 1
    14   10   19 2
    15   11   16 1
    16   12   17 1
    17   13   22 1
    18   14   18 2
    19   14   20 1
    20   14   21 1
    21   15   16 2
    22   15   17 1
    23   16   21 1
    24   17   20 2
    25   19   21 1
    26    1   23 1
    27    2   24 1
    28    3   25 1
    29    4   26 1
    30    5   27 1
    31    6   28 1
    32    7   29 1
    33    8   30 1
    34    9   31 1
    35   10   32 1
    36   15   33 1
@<TRIPOS>Similarity
1.4242
@<TRIPOS>ShapeSim
0.9294
@<TRIPOS>PharmSim
0.4948
# END
# Name:		AK-087/42718334
# Created and modified by SHAFTS on Mon Jul  5 00:36:42 2010

# 

@<TRIPOS>MOLECULE
AK-087/42718334
   51    54     0
SMALL
USER_CHARGE


@<TRIPOS>ATOM
      1 C1         -0.4052    0.4380    0.7104 C.1       1 <1>         0.0324
      2 C2          5.7713    2.6647   -0.6494 C.ar      1 <1>        -0.0654
      3 C3          0.0584    4.7625   -1.0169 C.ar      1 <1>        -0.0494
      4 C4          1.0954    5.4229    1.0629 C.ar      1 <1>        -0.0466
      5 C5          7.1262    2.3367   -0.6571 C.ar      1 <1>        -0.0490
      6 C6         -0.7112    5.9257   -1.0026 C.ar      1 <1>        -0.0539
      7 C7          0.3257    6.5862    1.0772 C.ar      1 <1>        -0.0450
      8 C8          5.2896    0.6318    0.5605 C.ar      1 <1>        -0.0700
      9 C9          2.3726    1.2597   -0.0106 C.2       1 <1>        -0.0363
     10 C10         4.8535    1.8143   -0.0375 C.ar      1 <1>        -0.0326
     11 C11         6.6480    0.2872    0.5475 C.ar      1 <1>        -0.0689
     12 C12         0.9616    4.5111    0.0159 C.ar      1 <1>        -0.0062
     13 C13         7.5672    1.1571   -0.0506 C.ar      1 <1>        -0.0023
     14 C14        -0.5775    6.8376    0.0445 C.ar      1 <1>        -0.0073
     15 C15         3.4586    2.1555   -0.0211 C.2       1 <1>         0.0056
     16 C16         1.2617    2.0673    0.0043 C.2       1 <1>        -0.0021
     17 C17         7.1001   -0.9854    1.1999 C.3       1 <1>        -0.0382
     18 C18         8.4886   -1.3642    0.7046 C.3       1 <1>        -0.0346
     19 C19         9.4327   -0.1508    0.6994 C.3       1 <1>         0.0020
     20 C20        10.7625   -0.5613    0.0499 C.3       1 <1>        -0.0333
     21 C21         9.7231    0.3813    2.1109 C.3       1 <1>        -0.0384
     22 C22        -2.2307    8.1686   -1.0284 C.3       1 <1>         0.0249
     23 C23        -0.1738    1.7234    0.0223 C.3       1 <1>         0.1202
     24 N1         -0.5769   -0.5739    1.2519 N.1       1 <1>        -0.3864
     25 N2          3.0726    3.4340   -0.0136 N.2       1 <1>        -0.3136
     26 N3          1.7315    3.3477    0.0016 N.pl3     1 <1>        -0.2913
     27 O1          8.9161    0.9243   -0.1076 O.3       1 <1>        -0.4111
     28 O2         -1.3275    7.9733    0.0587 O.3       1 <1>        -0.4159
     29 H1          5.4471    3.5859   -1.1277 H         1 <1>         0.1422
     30 H2         -0.0561    4.0602   -1.8391 H         1 <1>         0.1495
     31 H3          1.7953    5.2389    1.8745 H         1 <1>         0.1405
     32 H4          7.8345    3.0025   -1.1437 H         1 <1>         0.1313
     33 H5         -1.4131    6.1165   -1.8099 H         1 <1>         0.1246
     34 H6          0.4354    7.2926    1.8956 H         1 <1>         0.1411
     35 H7          4.5751   -0.0306    1.0461 H         1 <1>         0.1398
     36 H8          2.3888    0.1790   -0.0133 H         1 <1>         0.1356
     37 H9          7.1289   -0.8661    2.2894 H         1 <1>         0.0665
     38 H10         6.3810   -1.7808    0.9720 H         1 <1>         0.0676
     39 H11         8.8936   -2.1305    1.3805 H         1 <1>         0.0577
     40 H12         8.4191   -1.8187   -0.2906 H         1 <1>         0.0633
     41 H13        11.4370    0.2896    0.0413 H         1 <1>         0.0611
     42 H14        10.5795   -0.8904   -0.9684 H         1 <1>         0.0527
     43 H15        11.2067   -1.3717    0.6200 H         1 <1>         0.0537
     44 H16        10.3920    1.2341    2.0443 H         1 <1>         0.0447
     45 H17        10.1895   -0.4009    2.7022 H         1 <1>         0.0436
     46 H18         8.7921    0.6855    2.5801 H         1 <1>         0.0490
     47 H19        -2.7660    9.1117   -0.8934 H         1 <1>         0.0904
     48 H20        -2.9394    7.3376   -1.0683 H         1 <1>         0.0907
     49 H21        -1.6622    8.2052   -1.9607 H         1 <1>         0.1236
     50 H22        -0.5833    1.6594   -1.0008 H         1 <1>         0.1652
     51 H23        -0.7679    2.5082    0.5222 H         1 <1>         0.1781
@<TRIPOS>BOND
     1    1   23 1
     2    1   24 3
     3    2    5 ar
     4    2   10 ar
     5    3    6 ar
     6    3   12 ar
     7    4    7 ar
     8    4   12 ar
     9    5   13 ar
    10    6   14 ar
    11    7   14 ar
    12    8   10 ar
    13    8   11 ar
    14    9   15 1
    15    9   16 2
    16   10   15 1
    17   11   13 ar
    18   11   17 1
    19   12   26 1
    20   13   27 1
    21   14   28 1
    22   15   25 2
    23   16   23 1
    24   16   26 1
    25   17   18 1
    26   18   19 1
    27   19   20 1
    28   19   21 1
    29   19   27 1
    30   22   28 1
    31   25   26 1
    32    2   29 1
    33    3   30 1
    34    4   31 1
    35    5   32 1
    36    6   33 1
    37    7   34 1
    38    8   35 1
    39    9   36 1
    40   17   37 1
    41   17   38 1
    42   18   39 1
    43   18   40 1
    44   20   41 1
    45   20   42 1
    46   20   43 1
    47   21   44 1
    48   21   45 1
    49   21   46 1
    50   22   47 1
    51   22   48 1
    52   22   49 1
    53   23   50 1
    54   23   51 1
@<TRIPOS>Similarity
1.4221
@<TRIPOS>ShapeSim
0.8987
@<TRIPOS>PharmSim
0.5234
# END
# Name:		AF-399/34013039
# Created and modified by SHAFTS on Mon Jul  5 00:36:42 2010

# 

@<TRIPOS>MOLECULE
AF-399/34013039
   37    40     0
SMALL
USER_CHARGE


@<TRIPOS>ATOM
      1 C1          7.5075    1.0088   -0.0644 C.ar      1 <1>        -0.1061
      2 C2          6.5524    0.1942    0.5436 C.ar      1 <1>        -0.0990
      3 C3          7.1229    2.2113   -0.6576 C.ar      1 <1>        -0.1018
      4 C4          5.2127    0.5820    0.5585 C.ar      1 <1>        -0.0767
      5 C5          5.7830    2.5991   -0.6426 C.ar      1 <1>        -0.0811
      6 C6          0.9548    5.5262    1.0695 C.ar      1 <1>        -0.0481
      7 C7         -0.0361    4.8226   -1.0186 C.ar      1 <1>        -0.0376
      8 C8          0.1293    6.6504    1.0824 C.ar      1 <1>        -0.0356
      9 C9         -0.8617    5.9468   -1.0057 C.ar      1 <1>        -0.0289
     10 C10         4.8280    1.7845   -0.0346 C.ar      1 <1>        -0.0415
     11 C11         0.8722    4.6123    0.0188 C.ar      1 <1>        -0.0090
     12 C12        -0.7790    6.8607    0.0449 C.ar      1 <1>         0.0684
     13 C13         3.4534    2.1824   -0.0196 C.2       1 <1>         0.0122
     14 C14         2.3739    1.3316   -0.0150 C.2       1 <1>         0.0063
     15 C15         1.7300    3.4465    0.0042 C.2       1 <1>         0.0400
     16 C16         2.1591   -0.0727   -0.0217 C.2       1 <1>        -0.0502
     17 C17         0.8963   -0.5441   -0.0122 C.2       1 <1>        -0.0776
     18 C18        -0.2518    0.3519    0.0046 C.2       1 <1>        -0.0635
     19 C19        -0.0467    1.6799    0.0107 C.2       1 <1>        -0.0242
     20 N1          3.0450    3.4938   -0.0077 N.2       1 <1>        -0.3470
     21 N2          1.2602    2.1577    0.0008 N.pl3     1 <1>        -0.3056
     22 N3         -1.6191    8.0051    0.0580 N.pl3     1 <1>        -0.0631
     23 O1         -1.5288    8.8151    1.0122 O.3       1 <1>        -0.1756
     24 O2         -2.4292    8.1758   -0.8850 O.2       1 <1>        -0.2642
     25 H1          8.5509    0.7075   -0.0753 H         1 <1>         0.1161
     26 H2          6.8519   -0.7415    1.0065 H         1 <1>         0.1189
     27 H3          7.8669    2.8460   -1.1297 H         1 <1>         0.1181
     28 H4          4.4799   -0.0640    1.0365 H         1 <1>         0.1298
     29 H5          5.4994    3.5396   -1.1094 H         1 <1>         0.1219
     30 H6          1.6575    5.3763    1.8856 H         1 <1>         0.1411
     31 H7         -0.1114    4.1200   -1.8453 H         1 <1>         0.1616
     32 H8          0.2044    7.3552    1.9069 H         1 <1>         0.1711
     33 H9         -1.5643    6.0999   -1.8212 H         1 <1>         0.1736
     34 H10         3.0038   -0.7527   -0.0347 H         1 <1>         0.1614
     35 H11         0.7019   -1.6111   -0.0175 H         1 <1>         0.1428
     36 H12        -1.2481   -0.0733    0.0112 H         1 <1>         0.1530
     37 H13        -0.8623    2.3927    0.0226 H         1 <1>         0.2003
@<TRIPOS>BOND
     1    1    2 ar
     2    1    3 ar
     3    2    4 ar
     4    3    5 ar
     5    4   10 ar
     6    5   10 ar
     7    6    8 ar
     8    6   11 ar
     9    7    9 ar
    10    7   11 ar
    11    8   12 ar
    12    9   12 ar
    13   10   13 1
    14   11   15 1
    15   12   22 1
    16   13   14 2
    17   13   20 1
    18   14   16 1
    19   14   21 1
    20   15   20 2
    21   15   21 1
    22   16   17 2
    23   17   18 1
    24   18   19 2
    25   19   21 1
    26   22   23 1
    27   22   24 2
    28    1   25 1
    29    2   26 1
    30    3   27 1
    31    4   28 1
    32    5   29 1
    33    6   30 1
    34    7   31 1
    35    8   32 1
    36    9   33 1
    37   16   34 1
    38   17   35 1
    39   18   36 1
    40   19   37 1
@<TRIPOS>Similarity
1.4215
@<TRIPOS>ShapeSim
0.9514
@<TRIPOS>PharmSim
0.4702
# END
# Name:		AG-690/33080011
# Created and modified by SHAFTS on Mon Jul  5 00:36:42 2010

# 

@<TRIPOS>MOLECULE
AG-690/33080011
   38    40     0
SMALL
USER_CHARGE


@<TRIPOS>ATOM
      1 C1          7.2752    1.6035   -0.0511 C.ar      1 <1>        -0.1018
      2 C2          6.4831    2.5804   -0.6542 C.ar      1 <1>        -0.0955
      3 C3          6.6783    0.4987    0.5564 C.ar      1 <1>        -0.0978
      4 C4          5.0941    2.4526   -0.6497 C.ar      1 <1>        -0.0751
      5 C5          5.2894    0.3710    0.5609 C.ar      1 <1>        -0.0788
      6 C6          1.0691    5.4846    1.1095 C.ar      1 <1>        -0.0859
      7 C7          0.3431    4.6706   -1.0463 C.ar      1 <1>        -0.0801
      8 C8          0.0443    6.4307    1.0973 C.ar      1 <1>        -0.0644
      9 C9         -0.6817    5.6167   -1.0585 C.ar      1 <1>        -0.0589
     10 C10         4.4972    1.3479   -0.0421 C.ar      1 <1>        -0.0387
     11 C11         1.2185    4.6044    0.0376 C.ar      1 <1>        -0.0626
     12 C12        -0.8311    6.4969    0.0133 C.ar      1 <1>        -0.0664
     13 C13         3.0410    1.2141   -0.0374 C.2       1 <1>         0.0352
     14 C14         2.0920    2.3132   -0.0362 C.2       1 <1>         0.0713
     15 C15         0.7710    1.6854   -0.0706 C.2       1 <1>         0.2482
     16 C16         2.2734    3.6306    0.0503 C.2       1 <1>        -0.0437
     17 C17        -1.7014    8.7241    0.6782 C.3       1 <1>        -0.0334
     18 C18        -3.1065    7.1841   -0.7011 C.3       1 <1>        -0.0332
     19 N1          2.4190    0.0710   -0.0211 N.2       1 <1>        -0.2150
     20 N2         -1.8673    7.4535    0.0009 N.pl3     1 <1>        -0.4193
     21 O1         -0.3174    2.2268   -0.1041 O.2       1 <1>        -0.3999
     22 O2          1.0083    0.3324   -0.0445 O.3       1 <1>        -0.1853
     23 H1          8.3567    1.7030   -0.0545 H         1 <1>         0.1223
     24 H2          6.9479    3.4406   -1.1270 H         1 <1>         0.1228
     25 H3          7.2952   -0.2620    1.0257 H         1 <1>         0.1224
     26 H4          4.4862    3.2198   -1.1226 H         1 <1>         0.1342
     27 H5          4.8352   -0.4940    1.0374 H         1 <1>         0.1272
     28 H6          1.7439    5.4456    1.9613 H         1 <1>         0.1402
     29 H7          0.4469    3.9908   -1.8887 H         1 <1>         0.1427
     30 H8         -0.0630    7.1121    1.9375 H         1 <1>         0.1163
     31 H9         -1.3583    5.6588   -1.9082 H         1 <1>         0.1171
     32 H10         3.2990    3.9989    0.1083 H         1 <1>         0.1937
     33 H11        -2.6020    9.3325    0.5615 H         1 <1>         0.1005
     34 H12        -0.8518    9.2688    0.2570 H         1 <1>         0.0863
     35 H13        -1.5208    8.5634    1.7444 H         1 <1>         0.0840
     36 H14        -3.7870    8.0338   -0.6016 H         1 <1>         0.0823
     37 H15        -3.5902    6.2954   -0.2866 H         1 <1>         0.0943
     38 H16        -2.9100    7.0131   -1.7629 H         1 <1>         0.0950
@<TRIPOS>BOND
     1    1    2 ar
     2    1    3 ar
     3    2    4 ar
     4    3    5 ar
     5    4   10 ar
     6    5   10 ar
     7    6    8 ar
     8    6   11 ar
     9    7    9 ar
    10    7   11 ar
    11    8   12 ar
    12    9   12 ar
    13   10   13 1
    14   11   16 1
    15   12   20 1
    16   13   14 1
    17   13   19 2
    18   14   15 1
    19   14   16 2
    20   15   21 2
    21   15   22 1
    22   17   20 1
    23   18   20 1
    24   19   22 1
    25    1   23 1
    26    2   24 1
    27    3   25 1
    28    4   26 1
    29    5   27 1
    30    6   28 1
    31    7   29 1
    32    8   30 1
    33    9   31 1
    34   16   32 1
    35   17   33 1
    36   17   34 1
    37   17   35 1
    38   18   36 1
    39   18   37 1
    40   18   38 1
@<TRIPOS>Similarity
1.4212
@<TRIPOS>ShapeSim
0.8928
@<TRIPOS>PharmSim
0.5283
# END
# Name:		ZINC00209790
# Created and modified by SHAFTS on Mon Jul  5 00:36:42 2010

# 

@<TRIPOS>MOLECULE
ZINC00209790
   42    44     0
SMALL
USER_CHARGE


@<TRIPOS>ATOM
      1 C1         -0.6056    6.6516    0.0435 C.ar      1 <1>        -0.1025
      2 C2          0.2638    6.3106    1.0796 C.ar      1 <1>        -0.0982
      3 C3         -0.8239    5.7591   -1.0061 C.ar      1 <1>        -0.0960
      4 C4          0.9150    5.0772    1.0661 C.ar      1 <1>        -0.0775
      5 C5         -0.1726    4.5256   -1.0195 C.ar      1 <1>        -0.0732
      6 C6          5.3069    0.6194    1.0007 C.ar      1 <1>        -0.0734
      7 C7          6.6852    0.4056    0.9866 C.ar      1 <1>        -0.0518
      8 C8          5.4722    1.8233   -1.0873 C.ar      1 <1>        -0.0265
      9 C9          2.7500    2.8257   -0.0098 C.ar      1 <1>        -0.0062
     10 C10         0.6969    4.1847    0.0166 C.ar      1 <1>        -0.0295
     11 C11         4.7004    1.3281   -0.0363 C.ar      1 <1>        -0.0240
     12 C12         7.4570    0.9008   -0.0644 C.ar      1 <1>         0.0371
     13 C13         6.8506    1.6097   -1.1015 C.ar      1 <1>         0.0431
     14 C14         1.3724    2.9054    0.0032 C.ar      1 <1>        -0.0033
     15 C15         3.2740    1.5491   -0.0213 C.ar      1 <1>         0.0057
     16 C16         1.1909    0.6395   -0.0073 C.ar      1 <1>         0.1375
     17 C17         9.3433   -0.0478    1.0300 C.3       1 <1>         0.0268
     18 C18         8.1218    3.4144   -1.9861 C.3       1 <1>         0.0251
     19 C19        -1.0108   -0.2594    0.0086 C.3       1 <1>         0.0499
     20 N1          0.5592    1.8288    0.0048 N.ar      1 <1>        -0.3286
     21 N2          2.5210    0.4296   -0.0202 N.ar      1 <1>        -0.3115
     22 O1          8.8024    0.6858   -0.0669 O.3       1 <1>        -0.4052
     23 O2          7.5933    2.0979   -2.1337 O.3       1 <1>        -0.4081
     24 O3          0.3921   -0.4804   -0.0056 O.3       1 <1>        -0.3377
     25 H1         -1.1139    7.6113    0.0551 H         1 <1>         0.1227
     26 H2          0.4325    7.0047    1.8977 H         1 <1>         0.1207
     27 H3         -1.5017    6.0234   -1.8123 H         1 <1>         0.1199
     28 H4          1.5897    4.8260    1.8813 H         1 <1>         0.1305
     29 H5         -0.3530    3.8399   -1.8439 H         1 <1>         0.1391
     30 H6          4.7190    0.2264    1.8268 H         1 <1>         0.1354
     31 H7          7.1514   -0.1472    1.7976 H         1 <1>         0.1289
     32 H8          5.0080    2.3771   -1.9008 H         1 <1>         0.1507
     33 H9          3.3797    3.7085   -0.0109 H         1 <1>         0.1388
     34 H10        10.4243   -0.1478    0.9047 H         1 <1>         0.0901
     35 H11         8.8780   -1.0357    1.0737 H         1 <1>         0.0901
     36 H12         9.1347    0.4925    1.9565 H         1 <1>         0.1231
     37 H13         8.6927    3.6808   -2.8789 H         1 <1>         0.1226
     38 H14         8.7656    3.4528   -1.1038 H         1 <1>         0.0901
     39 H15         7.2948    4.1176   -1.8621 H         1 <1>         0.0895
     40 H16        -1.5317   -1.2200    0.0086 H         1 <1>         0.1321
     41 H17        -1.2977    0.3229   -0.8705 H         1 <1>         0.1017
     42 H18        -1.2741    0.2951    0.9124 H         1 <1>         0.1016
@<TRIPOS>BOND
     1    1    2 ar
     2    1    3 ar
     3    2    4 ar
     4    3    5 ar
     5    4   10 ar
     6    5   10 ar
     7    6    7 ar
     8    6   11 ar
     9    7   12 ar
    10    8   11 ar
    11    8   13 ar
    12    9   14 ar
    13    9   15 ar
    14   10   14 1
    15   11   15 1
    16   12   13 ar
    17   12   22 1
    18   13   23 1
    19   14   20 ar
    20   15   21 ar
    21   16   20 ar
    22   16   21 ar
    23   16   24 1
    24   17   22 1
    25   18   23 1
    26   19   24 1
    27    1   25 1
    28    2   26 1
    29    3   27 1
    30    4   28 1
    31    5   29 1
    32    6   30 1
    33    7   31 1
    34    8   32 1
    35    9   33 1
    36   17   34 1
    37   17   35 1
    38   17   36 1
    39   18   37 1
    40   18   38 1
    41   18   39 1
    42   19   40 1
    43   19   41 1
    44   19   42 1
@<TRIPOS>Similarity
1.4202
@<TRIPOS>ShapeSim
0.9085
@<TRIPOS>PharmSim
0.5117
# END
# Name:		AG-205/32388034
# Created and modified by SHAFTS on Mon Jul  5 00:36:42 2010

# 

@<TRIPOS>MOLECULE
AG-205/32388034
   42    44     0
SMALL
USER_CHARGE


@<TRIPOS>ATOM
      1 C1          1.3638    5.3242    0.6184 C.ar      1 <1>        -0.0800
      2 C2          5.3312    0.6769    0.9999 C.ar      1 <1>        -0.0663
      3 C3          0.7599    6.5814    0.6327 C.ar      1 <1>        -0.0551
      4 C4          6.7140    0.4951    0.9876 C.ar      1 <1>        -0.0520
      5 C5         -0.5363    4.4250   -0.5724 C.ar      1 <1>        -0.0470
      6 C6          5.4715    1.8862   -1.0869 C.ar      1 <1>        -0.0389
      7 C7          2.7279    2.8333   -0.0112 C.ar      1 <1>        -0.0434
      8 C8          0.5601    1.7918    0.0061 C.ar      1 <1>        -0.0563
      9 C9          0.7158    4.2459    0.0158 C.ar      1 <1>        -0.0625
     10 C10         4.7098    1.3725   -0.0374 C.ar      1 <1>        -0.0266
     11 C11         1.3417    2.9417    0.0035 C.ar      1 <1>        -0.0652
     12 C12        -0.4921    6.7605    0.0446 C.ar      1 <1>         0.0195
     13 C13         7.4756    1.0088   -0.0620 C.ar      1 <1>         0.0190
     14 C14        -1.1402    5.6823   -0.5581 C.ar      1 <1>         0.0362
     15 C15         6.8544    1.7045   -1.0992 C.ar      1 <1>         0.0358
     16 C16         3.2789    1.5620   -0.0227 C.ar      1 <1>        -0.0171
     17 C17         1.2081    0.5672   -0.0063 C.ar      1 <1>        -0.0511
     18 C18         0.4010   -0.6882   -0.0022 C.3       1 <1>        -0.0069
     19 C19        -0.7691    8.8702   -1.0175 C.3       1 <1>         0.0283
     20 C20         9.3180   -0.3614   -0.6813 C.3       1 <1>         0.0281
     21 N1          2.5522    0.4221   -0.0205 N.ar      1 <1>        -0.3894
     22 O1         -1.0589    7.9999    0.0741 O.3       1 <1>        -0.4072
     23 O2          8.8252    0.8169   -0.0476 O.3       1 <1>        -0.4074
     24 Cl1        -2.6906    5.8755   -1.2896 Cl        1 <1>        -0.1263
     25 Cl2         7.7731    2.3533   -2.4072 Cl        1 <1>        -0.1287
     26 H1          2.3396    5.1999    1.0818 H         1 <1>         0.1418
     27 H2          4.7509    0.2713    1.8252 H         1 <1>         0.1544
     28 H3          1.2708    7.4171    1.1033 H         1 <1>         0.1258
     29 H4          7.1914   -0.0484    1.7985 H         1 <1>         0.1247
     30 H5         -1.0404    3.5833   -1.0438 H         1 <1>         0.1531
     31 H6          4.9855    2.4275   -1.8966 H         1 <1>         0.1536
     32 H7          3.3595    3.7175   -0.0127 H         1 <1>         0.1334
     33 H8         -0.5246    1.8467    0.0176 H         1 <1>         0.1300
     34 H9          0.1832   -1.0043   -1.0293 H         1 <1>         0.0764
     35 H10         0.9332   -1.5012    0.5076 H         1 <1>         0.0755
     36 H11        -0.5493   -0.5478    0.5285 H         1 <1>         0.0735
     37 H12        -1.2822    9.8238   -0.8703 H         1 <1>         0.0920
     38 H13        -1.0986    8.4074   -1.9511 H         1 <1>         0.0920
     39 H14         0.3091    9.0418   -1.0588 H         1 <1>         0.1256
     40 H15        10.4073   -0.3922   -0.5983 H         1 <1>         0.0920
     41 H16         9.0221   -0.3613   -1.7334 H         1 <1>         0.0920
     42 H17         8.8922   -1.2366   -0.1851 H         1 <1>         0.1250
@<TRIPOS>BOND
     1    1    3 ar
     2    1    9 ar
     3    2    4 ar
     4    2   10 ar
     5    3   12 ar
     6    4   13 ar
     7    5    9 ar
     8    5   14 ar
     9    6   10 ar
    10    6   15 ar
    11    7   11 ar
    12    7   16 ar
    13    8   11 ar
    14    8   17 ar
    15    9   11 1
    16   10   16 1
    17   12   14 ar
    18   12   22 1
    19   13   15 ar
    20   13   23 1
    21   14   24 1
    22   15   25 1
    23   16   21 ar
    24   17   18 1
    25   17   21 ar
    26   19   22 1
    27   20   23 1
    28    1   26 1
    29    2   27 1
    30    3   28 1
    31    4   29 1
    32    5   30 1
    33    6   31 1
    34    7   32 1
    35    8   33 1
    36   18   34 1
    37   18   35 1
    38   18   36 1
    39   19   37 1
    40   19   38 1
    41   19   39 1
    42   20   40 1
    43   20   41 1
    44   20   42 1
@<TRIPOS>Similarity
1.4198
@<TRIPOS>ShapeSim
0.9005
@<TRIPOS>PharmSim
0.5192
# END
# Name:		AN-919/15183002
# Created and modified by SHAFTS on Mon Jul  5 00:36:42 2010

# 

@<TRIPOS>MOLECULE
AN-919/15183002
   39    41     0
SMALL
USER_CHARGE


@<TRIPOS>ATOM
      1 C1         -0.9618    1.8690    0.0199 C.1       1 <1>         0.0739
      2 C2          7.3963    1.0371   -0.0638 C.ar      1 <1>        -0.1113
      3 C3          6.7687    1.7283   -1.1000 C.ar      1 <1>        -0.1063
      4 C4          6.6400    0.5180    0.9870 C.ar      1 <1>        -0.1015
      5 C5          5.3845    1.9007   -1.0855 C.ar      1 <1>        -0.0810
      6 C6          5.2558    0.6904    1.0015 C.ar      1 <1>        -0.0733
      7 C7         -0.1982    4.6418   -1.0181 C.ar      1 <1>        -0.0846
      8 C8         -0.7704    5.9138   -1.0061 C.ar      1 <1>        -0.0688
      9 C9          0.9227    5.1263    1.0667 C.ar      1 <1>        -0.0732
     10 C10         2.6309    2.8270   -0.0078 C.ar      1 <1>        -0.0415
     11 C11         0.4718    1.7675    0.0062 C.ar      1 <1>         0.1078
     12 C12         4.6281    1.3817   -0.0347 C.ar      1 <1>        -0.0338
     13 C13         0.6483    4.2480    0.0183 C.ar      1 <1>        -0.0581
     14 C14         1.2438    2.9239    0.0055 C.ar      1 <1>        -0.0212
     15 C15         0.3505    6.3984    1.0786 C.ar      1 <1>        -0.0671
     16 C16        -0.4961    6.7921    0.0422 C.ar      1 <1>        -0.0150
     17 C17         3.1925    1.5605   -0.0200 C.ar      1 <1>        -0.0116
     18 C18         1.1300    0.5483   -0.0068 C.ar      1 <1>        -0.0629
     19 C19         0.6551    7.3260    2.2084 C.3       1 <1>        -0.0358
     20 C20        -1.9148    8.3500   -1.0605 C.3       1 <1>         0.0221
     21 N1         -2.1194    1.9509    0.0309 N.1       1 <1>        -0.3903
     22 N2          2.4752    0.4145   -0.0198 N.ar      1 <1>        -0.3681
     23 O1         -1.0625    8.0310    0.0377 O.3       1 <1>        -0.4187
     24 S1          0.2327   -1.0359   -0.0076 S.3       1 <1>        -0.5437
     25 H1          8.4739    0.9016   -0.0763 H         1 <1>         0.1099
     26 H2          7.3572    2.1311   -1.9191 H         1 <1>         0.1107
     27 H3          7.1279   -0.0215    1.7934 H         1 <1>         0.1129
     28 H4          4.9099    2.4417   -1.9007 H         1 <1>         0.1257
     29 H5          4.6793    0.2796    1.8270 H         1 <1>         0.1419
     30 H6         -0.4219    3.9689   -1.8425 H         1 <1>         0.1336
     31 H7         -1.4287    6.2149   -1.8166 H         1 <1>         0.1114
     32 H8          1.5824    4.8240    1.8776 H         1 <1>         0.1380
     33 H9          3.2568    3.7155   -0.0088 H         1 <1>         0.1188
     34 H10         1.5398    7.9302    1.9762 H         1 <1>         0.0557
     35 H11        -0.1871    8.0010    2.4054 H         1 <1>         0.0551
     36 H12         0.8439    6.7721    3.1365 H         1 <1>         0.0569
     37 H13        -2.2998    9.3656   -0.9409 H         1 <1>         0.0875
     38 H14        -2.7426    7.6374   -1.0995 H         1 <1>         0.0875
     39 H15        -1.3391    8.2877   -1.9871 H         1 <1>         0.1184
@<TRIPOS>BOND
     1    1   11 1
     2    1   21 3
     3    2    3 ar
     4    2    4 ar
     5    3    5 ar
     6    4    6 ar
     7    5   12 ar
     8    6   12 ar
     9    7    8 ar
    10    7   13 ar
    11    8   16 ar
    12    9   13 ar
    13    9   15 ar
    14   10   14 ar
    15   10   17 ar
    16   11   14 ar
    17   11   18 ar
    18   12   17 1
    19   13   14 1
    20   15   16 ar
    21   15   19 1
    22   16   23 1
    23   17   22 ar
    24   18   22 ar
    25   18   24 1
    26   20   23 1
    27    2   25 1
    28    3   26 1
    29    4   27 1
    30    5   28 1
    31    6   29 1
    32    7   30 1
    33    8   31 1
    34    9   32 1
    35   10   33 1
    36   19   34 1
    37   19   35 1
    38   19   36 1
    39   20   37 1
    40   20   38 1
    41   20   39 1
@<TRIPOS>Similarity
1.4177
@<TRIPOS>ShapeSim
0.9177
@<TRIPOS>PharmSim
0.5000
# END
# Name:		AE-848/36049027
# Created and modified by SHAFTS on Mon Jul  5 00:36:42 2010

# 

@<TRIPOS>MOLECULE
AE-848/36049027
   43    46     0
SMALL
USER_CHARGE


@<TRIPOS>ATOM
      1 C1          7.2255    0.4749    0.0242 C.ar      1 <1>        -0.0900
      2 C2          7.3086    1.5944   -0.8074 C.ar      1 <1>        -0.0945
      3 C3          1.2773    6.3433    0.4765 C.ar      1 <1>        -0.0712
      4 C4         -0.2463    4.6519   -0.3327 C.ar      1 <1>        -0.0756
      5 C5          6.0820    0.2292    0.7947 C.ar      1 <1>        -0.0548
      6 C6          6.2559    2.5105   -0.9017 C.ar      1 <1>        -0.0682
      7 C7          0.2717    7.3032    0.3634 C.ar      1 <1>        -0.0538
      8 C8         -1.2520    5.6117   -0.4457 C.ar      1 <1>        -0.0622
      9 C9          1.0184    5.0176    0.1284 C.ar      1 <1>        -0.0414
     10 C10         5.0096    1.1350    0.7179 C.ar      1 <1>        -0.0079
     11 C11         5.1248    2.2497   -0.1271 C.ar      1 <1>        -0.0076
     12 C12        -0.9930    6.9375   -0.0977 C.ar      1 <1>        -0.0112
     13 C13         3.1784    2.1826    0.9381 C.2       1 <1>         0.0753
     14 C14         3.2668    4.0188   -0.3910 C.2       1 <1>        -0.0020
     15 C15         2.0711    4.0127    0.2467 C.2       1 <1>        -0.0015
     16 C16        -3.2436    7.4316   -0.6861 C.3       1 <1>         0.0247
     17 C17         0.4468    1.0215    1.5841 C.3       1 <1>        -0.0183
     18 C18         0.9459    2.4157    1.9398 C.3       1 <1>         0.0104
     19 C19        -0.0897    0.9315    0.1605 C.3       1 <1>        -0.0297
     20 N1          3.7853    1.1106    1.3748 N.2       1 <1>        -0.3456
     21 N2          3.9374    2.8921    0.0428 N.pl3     1 <1>        -0.2927
     22 N3          2.0033    2.8619    1.0697 N.pl3     1 <1>        -0.3077
     23 O1         -1.1639    1.8515    0.0176 O.3       1 <1>        -0.4979
     24 O2         -1.9742    7.8742   -0.2080 O.3       1 <1>        -0.4164
     25 H1          8.0619   -0.2177    0.0749 H         1 <1>         0.1263
     26 H2          8.2098    1.7574   -1.3937 H         1 <1>         0.1209
     27 H3          2.2581    6.6437    0.8375 H         1 <1>         0.1404
     28 H4         -0.4634    3.6225   -0.6078 H         1 <1>         0.1400
     29 H5          6.0300   -0.6446    1.4366 H         1 <1>         0.1407
     30 H6          6.3204    3.3791   -1.5472 H         1 <1>         0.1282
     31 H7          0.4794    8.3344    0.6359 H         1 <1>         0.1337
     32 H8         -2.2351    5.3208   -0.8055 H         1 <1>         0.1193
     33 H9          3.6834    4.7226   -1.0923 H         1 <1>         0.2058
     34 H10        -3.9340    8.2776   -0.7259 H         1 <1>         0.1231
     35 H11        -3.6355    6.6587   -0.0202 H         1 <1>         0.0905
     36 H12        -3.1207    7.0171   -1.6896 H         1 <1>         0.0903
     37 H13         1.2672    0.3025    1.7008 H         1 <1>         0.0701
     38 H14        -0.3333    0.7029    2.2871 H         1 <1>         0.0661
     39 H15         0.1315    3.1411    1.8499 H         1 <1>         0.1321
     40 H16         1.3218    2.4488    2.9674 H         1 <1>         0.1294
     41 H17         0.6825    1.1873   -0.5716 H         1 <1>         0.0779
     42 H18        -0.4639   -0.0750   -0.0521 H         1 <1>         0.0803
     43 H19        -1.4824    1.7703   -0.8959 H         1 <1>         0.3248
@<TRIPOS>BOND
     1    1    2 ar
     2    1    5 ar
     3    2    6 ar
     4    3    7 ar
     5    3    9 ar
     6    4    8 ar
     7    4    9 ar
     8    5   10 ar
     9    6   11 ar
    10    7   12 ar
    11    8   12 ar
    12    9   15 1
    13   10   11 ar
    14   10   20 1
    15   11   21 1
    16   12   24 1
    17   13   20 2
    18   13   21 1
    19   13   22 1
    20   14   15 2
    21   14   21 1
    22   15   22 1
    23   16   24 1
    24   17   18 1
    25   17   19 1
    26   18   22 1
    27   19   23 1
    28    1   25 1
    29    2   26 1
    30    3   27 1
    31    4   28 1
    32    5   29 1
    33    6   30 1
    34    7   31 1
    35    8   32 1
    36   14   33 1
    37   16   34 1
    38   16   35 1
    39   16   36 1
    40   17   37 1
    41   17   38 1
    42   18   39 1
    43   18   40 1
    44   19   41 1
    45   19   42 1
    46   23   43 1
@<TRIPOS>Similarity
1.4171
@<TRIPOS>ShapeSim
0.8098
@<TRIPOS>PharmSim
0.6072
# END
# Name:		AG-205/33152055
# Created and modified by SHAFTS on Mon Jul  5 00:36:42 2010

# 

@<TRIPOS>MOLECULE
AG-205/33152055
   37    39     0
SMALL
USER_CHARGE


@<TRIPOS>ATOM
      1 C1          5.4368    1.8813   -1.0863 C.ar      1 <1>        -0.0616
      2 C2          5.3493    0.6670    1.0005 C.ar      1 <1>        -0.0486
      3 C3         -0.9997    4.8790   -0.5350 C.ar      1 <1>        -0.0824
      4 C4          1.1376    4.9475    0.5894 C.ar      1 <1>        -0.0897
      5 C5         -1.0486    6.2730   -0.5269 C.ar      1 <1>        -0.0989
      6 C6          1.0887    6.3415    0.5975 C.ar      1 <1>        -0.0999
      7 C7          6.8261    1.7580   -1.0999 C.ar      1 <1>        -0.0578
      8 C8          6.7388    0.5436    0.9869 C.ar      1 <1>        -0.0427
      9 C9          4.6984    1.3358   -0.0361 C.ar      1 <1>         0.0177
     10 C10         0.0934    4.2162    0.0232 C.ar      1 <1>        -0.0623
     11 C11        -0.0044    7.0042    0.0392 C.ar      1 <1>        -0.1164
     12 C12         7.4771    1.0890   -0.0634 C.ar      1 <1>        -0.0064
     13 C13         3.2499    1.4642   -0.0218 C.2       1 <1>         0.1158
     14 C14         1.2665    2.0624    0.0004 C.2       1 <1>         0.0822
     15 C15         1.2644    0.5847   -0.0075 C.2       1 <1>         0.2292
     16 C16         0.1438    2.7825    0.0151 C.2       1 <1>        -0.0229
     17 C17        -0.0563    8.4946    0.0454 C.3       1 <1>        -0.0408
     18 C18         9.4332    0.2725    1.0149 C.3       1 <1>         0.0266
     19 N1          2.5460    2.5411   -0.0096 N.2       1 <1>        -0.3484
     20 O1          0.3249   -0.1839   -0.0028 O.2       1 <1>        -0.4008
     21 O2          2.5948    0.2813   -0.0217 O.3       1 <1>        -0.2494
     22 O3          8.8327    0.9686   -0.0762 O.3       1 <1>        -0.4127
     23 H1          4.9405    2.4044   -1.8997 H         1 <1>         0.1496
     24 H2          4.7831    0.2382    1.8233 H         1 <1>         0.1617
     25 H3         -1.8214    4.3227   -0.9798 H         1 <1>         0.1639
     26 H4          1.9965    4.4452    1.0281 H         1 <1>         0.1311
     27 H5         -1.9039    6.7810   -0.9645 H         1 <1>         0.1169
     28 H6          1.9066    6.9035    1.0407 H         1 <1>         0.1172
     29 H7          7.3958    2.1851   -1.9207 H         1 <1>         0.1198
     30 H8          7.2403    0.0217    1.7973 H         1 <1>         0.1381
     31 H9         -0.8027    2.2424    0.0505 H         1 <1>         0.1937
     32 H10        -0.5484    8.8560    0.9567 H         1 <1>         0.0597
     33 H11         0.9510    8.9286   -0.0013 H         1 <1>         0.0552
     34 H12        -0.6077    8.8777   -0.8232 H         1 <1>         0.0557
     35 H13        10.5174    0.2489    0.8805 H         1 <1>         0.0917
     36 H14         9.0387   -0.7456    1.0601 H         1 <1>         0.0917
     37 H15         9.1948    0.7951    1.9443 H         1 <1>         0.1240
@<TRIPOS>BOND
     1    1    7 ar
     2    1    9 ar
     3    2    8 ar
     4    2    9 ar
     5    3    5 ar
     6    3   10 ar
     7    4    6 ar
     8    4   10 ar
     9    5   11 ar
    10    6   11 ar
    11    7   12 ar
    12    8   12 ar
    13    9   13 1
    14   10   16 1
    15   11   17 1
    16   12   22 1
    17   13   19 2
    18   13   21 1
    19   14   15 1
    20   14   16 2
    21   14   19 1
    22   15   20 2
    23   15   21 1
    24   18   22 1
    25    1   23 1
    26    2   24 1
    27    3   25 1
    28    4   26 1
    29    5   27 1
    30    6   28 1
    31    7   29 1
    32    8   30 1
    33   16   31 1
    34   17   32 1
    35   17   33 1
    36   17   34 1
    37   18   35 1
    38   18   36 1
    39   18   37 1
@<TRIPOS>Similarity
1.4166
@<TRIPOS>ShapeSim
0.8832
@<TRIPOS>PharmSim
0.5334
# END
# Name:		AF-399/15104011
# Created and modified by SHAFTS on Mon Jul  5 00:36:42 2010

# 

@<TRIPOS>MOLECULE
AF-399/15104011
   40    42     0
SMALL
USER_CHARGE


@<TRIPOS>ATOM
      1 C1          0.9083    5.6402    1.0897 C.ar      1 <1>        -0.0811
      2 C2         -0.0110    4.9741   -1.0431 C.ar      1 <1>        -0.0678
      3 C3          6.8068    0.6969    0.9651 C.ar      1 <1>        -0.0385
      4 C4          7.1414    1.9536   -1.0710 C.ar      1 <1>        -0.0440
      5 C5          5.4611    1.0635    0.9702 C.ar      1 <1>        -0.0338
      6 C6          5.7955    2.3201   -1.0660 C.ar      1 <1>        -0.0403
      7 C7          0.0592    6.7465    1.1102 C.ar      1 <1>        -0.0638
      8 C8         -0.8601    6.0805   -1.0226 C.ar      1 <1>        -0.0490
      9 C9          0.8732    4.7539    0.0131 C.ar      1 <1>        -0.0481
     10 C10         7.6471    1.1420   -0.0554 C.ar      1 <1>         0.0506
     11 C11         4.9554    1.8750   -0.0453 C.ar      1 <1>        -0.0037
     12 C12        -0.8251    6.9668    0.0541 C.ar      1 <1>        -0.0097
     13 C13         3.1082    3.5614    0.0155 C.2       1 <1>         0.0009
     14 C14         1.7658    3.5910   -0.0084 C.2       1 <1>        -0.0154
     15 C15         2.4110    1.3998   -0.0677 C.2       1 <1>        -0.0089
     16 C16         9.0503    0.7601   -0.0607 C.2       1 <1>         0.1824
     17 C17        -2.5323    8.2111   -1.0379 C.3       1 <1>         0.0252
     18 C18        10.7363   -0.3721   -1.3129 C.3       1 <1>         0.0368
     19 N1          1.3132    2.2970   -0.0660 N.pl3     1 <1>        -0.3041
     20 N2          3.5765    2.2499   -0.0392 N.pl3     1 <1>        -0.2929
     21 O1          9.8527    1.0293    0.8429 O.2       1 <1>        -0.4459
     22 O2         -1.6536    8.0464    0.0741 O.3       1 <1>        -0.4156
     23 O3          9.3776    0.0622   -1.1912 O.3       1 <1>        -0.3522
     24 S1          2.1987   -0.2486   -0.0207 S.2       1 <1>        -0.3486
     25 H1          1.5921    5.4818    1.9202 H         1 <1>         0.1302
     26 H2         -0.0500    4.2922   -1.8892 H         1 <1>         0.1454
     27 H3          7.1906    0.0647    1.7615 H         1 <1>         0.1615
     28 H4          7.7872    2.3062   -1.8712 H         1 <1>         0.1583
     29 H5          4.8146    0.7109    1.7702 H         1 <1>         0.1539
     30 H6          5.4124    2.9531   -1.8626 H         1 <1>         0.1462
     31 H7          0.0910    7.4334    1.9515 H         1 <1>         0.1187
     32 H8         -1.5468    6.2467   -1.8481 H         1 <1>         0.1373
     33 H9          3.7987    4.3919    0.0602 H         1 <1>         0.2195
     34 H10        -3.1372    9.1100   -0.8953 H         1 <1>         0.1238
     35 H11        -3.1787    7.3342   -1.1257 H         1 <1>         0.0906
     36 H12        -1.9377    8.3156   -1.9484 H         1 <1>         0.0906
     37 H13        10.8638   -0.9134   -2.2536 H         1 <1>         0.1265
     38 H14        10.9896   -1.0200   -0.4700 H         1 <1>         0.0959
     39 H15        11.3910    0.5027   -1.3070 H         1 <1>         0.0956
     40 H16         0.3335    2.0323   -0.0886 H         1 <1>         0.3734
@<TRIPOS>BOND
     1    1    7 ar
     2    1    9 ar
     3    2    8 ar
     4    2    9 ar
     5    3    5 ar
     6    3   10 ar
     7    4    6 ar
     8    4   10 ar
     9    5   11 ar
    10    6   11 ar
    11    7   12 ar
    12    8   12 ar
    13    9   14 1
    14   10   16 1
    15   11   20 1
    16   12   22 1
    17   13   14 2
    18   13   20 1
    19   14   19 1
    20   15   19 1
    21   15   20 1
    22   15   24 2
    23   16   21 2
    24   16   23 1
    25   17   22 1
    26   18   23 1
    27    1   25 1
    28    2   26 1
    29    3   27 1
    30    4   28 1
    31    5   29 1
    32    6   30 1
    33    7   31 1
    34    8   32 1
    35   13   33 1
    36   17   34 1
    37   17   35 1
    38   17   36 1
    39   18   37 1
    40   18   38 1
    41   18   39 1
    42   19   40 1
@<TRIPOS>Similarity
1.4151
@<TRIPOS>ShapeSim
0.8850
@<TRIPOS>PharmSim
0.5301
# END
# Name:		AQ-776/42801378
# Created and modified by SHAFTS on Mon Jul  5 00:36:42 2010

# 

@<TRIPOS>MOLECULE
AQ-776/42801378
   35    38     0
SMALL
USER_CHARGE


@<TRIPOS>ATOM
      1 C1          7.5421    0.7919   -0.0658 C.ar      1 <1>        -0.0856
      2 C2          7.0835    1.6043   -1.1028 C.ar      1 <1>        -0.1084
      3 C3          6.6899    0.4561    0.9861 C.ar      1 <1>        -0.1090
      4 C4         -1.0025    6.7731    0.0471 C.ar      1 <1>        -0.0975
      5 C5          0.3655    7.0604    0.0371 C.ar      1 <1>        -0.0586
      6 C6          5.7728    2.0810   -1.0877 C.ar      1 <1>        -0.0814
      7 C7          5.3791    0.9328    1.0011 C.ar      1 <1>        -0.1088
      8 C8         -1.4502    5.4479    0.0432 C.ar      1 <1>        -0.0622
      9 C9          1.3020    6.0287    0.0229 C.ar      1 <1>        -0.1201
     10 C10         3.1624    3.5666   -0.0085 C.2       1 <1>         0.0014
     11 C11         4.9205    1.7453   -0.0358 C.ar      1 <1>        -0.0634
     12 C12        -0.5321    4.3944    0.0292 C.ar      1 <1>        -0.0809
     13 C13         0.8400    4.7166    0.0190 C.ar      1 <1>         0.1213
     14 C14         3.5329    2.2491   -0.0198 C.2       1 <1>         0.1269
     15 C15         1.3223    2.3288    0.0006 C.cat     1 <1>         0.3252
     16 C16        -1.0052    2.9981    0.0250 C.2       1 <1>         0.0112
     17 C17        -0.1233    1.9890    0.0112 C.2       1 <1>        -0.1496
     18 C18         2.3131    0.0584   -0.0223 C.3       1 <1>         0.0427
     19 N1          1.7796    3.5973    0.0041 N.pl3     1 <1>        -0.3343
     20 N2          2.3781    1.5088   -0.0133 N.pl3     1 <1>        -0.3897
     21 H1          8.5620    0.4190   -0.0786 H         1 <1>         0.1379
     22 H2          7.7472    1.8645   -1.9224 H         1 <1>         0.1402
     23 H3          7.0470   -0.1774    1.7927 H         1 <1>         0.1385
     24 H4         -1.7236    7.5859    0.0579 H         1 <1>         0.1514
     25 H5          0.6989    8.0944    0.0399 H         1 <1>         0.1530
     26 H6          5.4293    2.7133   -1.9029 H         1 <1>         0.1333
     27 H7          4.7270    0.6620    1.8281 H         1 <1>         0.1309
     28 H8         -2.5204    5.2555    0.0506 H         1 <1>         0.1569
     29 H9          2.3576    6.2737    0.0137 H         1 <1>         0.1472
     30 H10         3.7053    4.4924   -0.0091 H         1 <1>         0.2236
     31 H11        -2.0720    2.8043    0.0334 H         1 <1>         0.1778
     32 H12        -0.4388    0.9532    0.0077 H         1 <1>         0.1765
     33 H13         2.3075   -0.3021    1.0100 H         1 <1>         0.1142
     34 H14         1.4061   -0.2799   -0.5310 H         1 <1>         0.1170
     35 H15         3.1817   -0.3462   -0.5496 H         1 <1>         0.1223
@<TRIPOS>BOND
     1    1    2 ar
     2    1    3 ar
     3    2    6 ar
     4    3    7 ar
     5    4    5 ar
     6    4    8 ar
     7    5    9 ar
     8    6   11 ar
     9    7   11 ar
    10    8   12 ar
    11    9   13 ar
    12   10   14 2
    13   10   19 1
    14   11   14 1
    15   12   13 ar
    16   12   16 1
    17   13   19 1
    18   14   20 1
    19   15   17 1
    20   15   19 1
    21   15   20 2
    22   16   17 2
    23   18   20 1
    24    1   21 1
    25    2   22 1
    26    3   23 1
    27    4   24 1
    28    5   25 1
    29    6   26 1
    30    7   27 1
    31    8   28 1
    32    9   29 1
    33   10   30 1
    34   16   31 1
    35   17   32 1
    36   18   33 1
    37   18   34 1
    38   18   35 1
@<TRIPOS>Similarity
1.4149
@<TRIPOS>ShapeSim
0.8527
@<TRIPOS>PharmSim
0.5622
# END
# Name:		AE-641/14883017
# Created and modified by SHAFTS on Mon Jul  5 00:36:42 2010

# 

@<TRIPOS>MOLECULE
AE-641/14883017
   38    40     0
SMALL
USER_CHARGE


@<TRIPOS>ATOM
      1 C1          7.4847    1.1446   -0.0636 C.ar      1 <1>        -0.1053
      2 C2         -0.6092    6.8792    0.0440 C.ar      1 <1>        -0.0959
      3 C3          6.6729    0.7202    0.9881 C.ar      1 <1>        -0.0998
      4 C4          6.9427    1.9042   -1.1004 C.ar      1 <1>        -0.0992
      5 C5         -0.7468    5.9707   -1.0054 C.ar      1 <1>        -0.0874
      6 C6          0.2873    6.6175    1.0801 C.ar      1 <1>        -0.0848
      7 C7          5.3189    1.0552    1.0030 C.ar      1 <1>        -0.0780
      8 C8          5.5888    2.2391   -1.0856 C.ar      1 <1>        -0.0772
      9 C9          0.0120    4.8003   -1.0186 C.ar      1 <1>        -0.0494
     10 C10         1.0460    5.4471    1.0669 C.ar      1 <1>        -0.0468
     11 C11         4.7768    1.8147   -0.0338 C.ar      1 <1>        -0.0376
     12 C12         2.2884    1.2740   -0.0134 C.2       1 <1>        -0.0184
     13 C13         0.9084    4.5385    0.0176 C.ar      1 <1>         0.0098
     14 C14         3.3828    2.1595   -0.0189 C.2       1 <1>         0.0220
     15 C15         1.1851    2.0919    0.0015 C.2       1 <1>         0.1165
     16 C16        -0.1978    1.7241    0.0125 C.2       1 <1>         0.2147
     17 C17         2.3131   -0.2007   -0.0212 C.3       1 <1>        -0.0221
     18 C18        -1.7648    0.0418    0.7179 C.3       1 <1>         0.0394
     19 N1          3.0088    3.4416   -0.0085 N.2       1 <1>        -0.2917
     20 N2          1.6669    3.3679    0.0036 N.pl3     1 <1>        -0.2524
     21 O1         -1.1291    2.3955   -0.4857 O.2       1 <1>        -0.4280
     22 O2         -0.4173    0.5198    0.6430 O.3       1 <1>        -0.3438
     23 H1          8.5392    0.8849   -0.0748 H         1 <1>         0.1174
     24 H2         -1.1983    7.7914    0.0538 H         1 <1>         0.1269
     25 H3          7.0948    0.1300    1.7962 H         1 <1>         0.1193
     26 H4          7.5753    2.2356   -1.9186 H         1 <1>         0.1183
     27 H5         -1.4437    6.1750   -1.8129 H         1 <1>         0.1289
     28 H6          0.3949    7.3262    1.8962 H         1 <1>         0.1298
     29 H7          4.6989    0.7167    1.8300 H         1 <1>         0.1283
     30 H8          5.1815    2.8318   -1.9014 H         1 <1>         0.1284
     31 H9         -0.1044    4.1009   -1.8429 H         1 <1>         0.1411
     32 H10         1.7416    5.2559    1.8805 H         1 <1>         0.1412
     33 H11         2.3292   -0.6043    1.0049 H         1 <1>         0.0684
     34 H12         1.4342   -0.6278   -0.5346 H         1 <1>         0.0683
     35 H13         3.1966   -0.5980   -0.5506 H         1 <1>         0.0751
     36 H14        -1.7835   -0.9170    1.2416 H         1 <1>         0.0988
     37 H15        -2.1678   -0.0741   -0.2914 H         1 <1>         0.1267
     38 H16        -2.3690    0.7669    1.2682 H         1 <1>         0.0985
@<TRIPOS>BOND
     1    1    3 ar
     2    1    4 ar
     3    2    5 ar
     4    2    6 ar
     5    3    7 ar
     6    4    8 ar
     7    5    9 ar
     8    6   10 ar
     9    7   11 ar
    10    8   11 ar
    11    9   13 ar
    12   10   13 ar
    13   11   14 1
    14   12   14 1
    15   12   15 2
    16   12   17 1
    17   13   20 1
    18   14   19 2
    19   15   16 1
    20   15   20 1
    21   16   21 2
    22   16   22 1
    23   18   22 1
    24   19   20 1
    25    1   23 1
    26    2   24 1
    27    3   25 1
    28    4   26 1
    29    5   27 1
    30    6   28 1
    31    7   29 1
    32    8   30 1
    33    9   31 1
    34   10   32 1
    35   17   33 1
    36   17   34 1
    37   17   35 1
    38   18   36 1
    39   18   37 1
    40   18   38 1
@<TRIPOS>Similarity
1.4117
@<TRIPOS>ShapeSim
0.9119
@<TRIPOS>PharmSim
0.4998
# END
# Name:		AE-848/34408043
# Created and modified by SHAFTS on Mon Jul  5 00:36:42 2010

# 

@<TRIPOS>MOLECULE
AE-848/34408043
   40    42     0
SMALL
USER_CHARGE


@<TRIPOS>ATOM
      1 C1         -0.9599    1.8566    0.0168 C.1       1 <1>         0.0757
      2 C2          7.3939    1.0360   -0.0643 C.ar      1 <1>        -0.1034
      3 C3          6.8259    2.1638   -0.6566 C.ar      1 <1>        -0.0994
      4 C4          6.5780    0.0814    0.5430 C.ar      1 <1>        -0.0970
      5 C5          5.4419    2.3374   -0.6415 C.ar      1 <1>        -0.0793
      6 C6          5.1940    0.2550    0.5582 C.ar      1 <1>        -0.0749
      7 C7          0.9237    5.1239    1.0672 C.ar      1 <1>        -0.0762
      8 C8         -0.1948    4.6391   -1.0187 C.ar      1 <1>        -0.0845
      9 C9          0.3499    6.3953    1.0793 C.ar      1 <1>        -0.0520
     10 C10        -0.7685    5.9105   -1.0066 C.ar      1 <1>        -0.0645
     11 C11         2.6331    2.8296   -0.0067 C.ar      1 <1>        -0.0198
     12 C12         0.4732    1.7717    0.0049 C.ar      1 <1>         0.1144
     13 C13         0.6514    4.2459    0.0181 C.ar      1 <1>        -0.0576
     14 C14         4.6260    1.3829   -0.0340 C.ar      1 <1>        -0.0323
     15 C15         1.2462    2.9275    0.0054 C.ar      1 <1>        -0.0111
     16 C16        -0.4962    6.7885    0.0425 C.ar      1 <1>        -0.0109
     17 C17         3.1938    1.5627   -0.0189 C.ar      1 <1>        -0.0038
     18 C18         1.1306    0.5520   -0.0080 C.ar      1 <1>         0.0540
     19 C19        -1.9116    8.3661   -1.0362 C.3       1 <1>         0.0249
     20 C20         0.1096   -1.2690    1.7681 C.3       1 <1>         0.0095
     21 N1         -2.1183    1.9253    0.0263 N.1       1 <1>        -0.3602
     22 N2          2.4758    0.4172   -0.0198 N.ar      1 <1>        -0.3617
     23 O1         -1.0563    8.0287    0.0548 O.3       1 <1>        -0.4157
     24 S1          0.2414   -1.0041   -0.0120 S.3       1 <1>        -0.1287
     25 H1          8.4714    0.9003   -0.0778 H         1 <1>         0.1212
     26 H2          7.4609    2.9063   -1.1310 H         1 <1>         0.1196
     27 H3          7.0195   -0.7977    1.0031 H         1 <1>         0.1189
     28 H4          5.0143    3.2219   -1.1077 H         1 <1>         0.1295
     29 H5          4.5707   -0.4978    1.0348 H         1 <1>         0.1381
     30 H6          1.5810    4.8320    1.8826 H         1 <1>         0.1375
     31 H7         -0.4169    3.9662   -1.8435 H         1 <1>         0.1383
     32 H8          0.5657    7.0748    1.8993 H         1 <1>         0.1335
     33 H9         -1.4271    6.2114   -1.8169 H         1 <1>         0.1170
     34 H10         3.2598    3.7173   -0.0070 H         1 <1>         0.1491
     35 H11        -2.2909    9.3821   -0.9022 H         1 <1>         0.0902
     36 H12        -2.7432    7.6583   -1.0809 H         1 <1>         0.0905
     37 H13        -1.3399    8.3127   -1.9658 H         1 <1>         0.1230
     38 H14        -0.4220   -2.2029    1.9667 H         1 <1>         0.0797
     39 H15        -0.4388   -0.4424    2.2266 H         1 <1>         0.0888
     40 H16         1.1074   -1.3247    2.2099 H         1 <1>         0.0797
@<TRIPOS>BOND
     1    1   12 1
     2    1   21 3
     3    2    3 ar
     4    2    4 ar
     5    3    5 ar
     6    4    6 ar
     7    5   14 ar
     8    6   14 ar
     9    7    9 ar
    10    7   13 ar
    11    8   10 ar
    12    8   13 ar
    13    9   16 ar
    14   10   16 ar
    15   11   15 ar
    16   11   17 ar
    17   12   15 ar
    18   12   18 ar
    19   13   15 1
    20   14   17 1
    21   16   23 1
    22   17   22 ar
    23   18   22 ar
    24   18   24 1
    25   19   23 1
    26   20   24 1
    27    2   25 1
    28    3   26 1
    29    4   27 1
    30    5   28 1
    31    6   29 1
    32    7   30 1
    33    8   31 1
    34    9   32 1
    35   10   33 1
    36   11   34 1
    37   19   35 1
    38   19   36 1
    39   19   37 1
    40   20   38 1
    41   20   39 1
    42   20   40 1
@<TRIPOS>Similarity
1.4112
@<TRIPOS>ShapeSim
0.9130
@<TRIPOS>PharmSim
0.4982
# END
# Name:		AG-205/11945026
# Created and modified by SHAFTS on Mon Jul  5 00:36:42 2010

# 

@<TRIPOS>MOLECULE
AG-205/11945026
   55    58     0
SMALL
USER_CHARGE


@<TRIPOS>ATOM
      1 C1         -0.1054    4.7335   -0.9606 C.ar      1 <1>        -0.0776
      2 C2          1.0189    5.5630    1.0104 C.ar      1 <1>        -0.0652
      3 C3         -0.7565    1.8263    1.3358 C.ar      1 <1>        -0.0742
      4 C4         -0.4067    0.6319   -0.7349 C.ar      1 <1>        -0.0770
      5 C5          5.4572    1.1311    0.8829 C.ar      1 <1>        -0.0631
      6 C6         -0.9491    5.8442   -0.9468 C.ar      1 <1>        -0.0688
      7 C7          0.1753    6.6738    1.0242 C.ar      1 <1>        -0.0545
      8 C8         -2.0125    1.2335    1.4656 C.ar      1 <1>        -0.0560
      9 C9         -1.6627    0.0391   -0.6052 C.ar      1 <1>        -0.0638
     10 C10         6.7828    0.7022    0.8170 C.ar      1 <1>        -0.0649
     11 C11         7.0100    1.7387   -1.3537 C.ar      1 <1>        -0.0146
     12 C12         0.8785    4.5928    0.0181 C.ar      1 <1>        -0.0383
     13 C13         0.0464    1.5255    0.2356 C.ar      1 <1>        -0.0522
     14 C14         4.9079    1.8636   -0.1694 C.ar      1 <1>         0.0317
     15 C15        -0.8087    6.8143    0.0455 C.ar      1 <1>        -0.0172
     16 C16        -2.4655    0.3400    0.4951 C.ar      1 <1>        -0.0141
     17 C17         7.5592    1.0061   -0.3013 C.ar      1 <1>        -0.0111
     18 C18         5.6843    2.1674   -1.2876 C.ar      1 <1>         0.0406
     19 C19         1.7470    3.4493    0.0049 C.2       1 <1>        -0.0013
     20 C20         1.3445    2.1382    0.1015 C.2       1 <1>        -0.0236
     21 C21         3.5348    2.2975   -0.0813 C.2       1 <1>         0.0234
     22 C22        -2.6155    7.9797   -0.9709 C.3       1 <1>         0.0221
     23 C23        -4.0919   -1.1424   -0.4069 C.3       1 <1>         0.0235
     24 C24         9.3503   -0.1570    0.7453 C.3       1 <1>         0.0261
     25 C25         4.5543    2.1416   -3.3799 C.3       1 <1>         0.0352
     26 N1          3.1116    3.5417   -0.1091 N.2       1 <1>        -0.3551
     27 N2          2.5006    1.4121    0.0444 N.pl3     1 <1>        -0.3289
     28 O1         -1.6315    7.8984    0.0592 O.3       1 <1>        -0.4203
     29 O2         -3.6911   -0.2384    0.6216 O.3       1 <1>        -0.4183
     30 O3          8.8529    0.5876   -0.3654 O.3       1 <1>        -0.4140
     31 O4          5.1732    2.8820   -2.3307 O.3       1 <1>        -0.3896
     32 H1         -0.2273    3.9859   -1.7407 H         1 <1>         0.1319
     33 H2          1.7807    5.4676    1.7806 H         1 <1>         0.1443
     34 H3         -0.4176    2.5208    2.1009 H         1 <1>         0.1331
     35 H4          0.2074    0.3872   -1.5984 H         1 <1>         0.1394
     36 H5          4.8658    0.8856    1.7620 H         1 <1>         0.1401
     37 H6         -1.7137    5.9488   -1.7116 H         1 <1>         0.1097
     38 H7          0.2895    7.4255    1.8005 H         1 <1>         0.1270
     39 H8         -2.6335    1.4718    2.3249 H         1 <1>         0.1293
     40 H9         -2.0102   -0.6561   -1.3644 H         1 <1>         0.1155
     41 H10         7.2053    0.1319    1.6398 H         1 <1>         0.1101
     42 H11         7.6160    1.9750   -2.2247 H         1 <1>         0.1274
     43 H12        -3.2035    8.8918   -0.8429 H         1 <1>         0.0876
     44 H13        -3.2672    7.1037   -0.9234 H         1 <1>         0.1201
     45 H14        -2.1133    8.0058   -1.9409 H         1 <1>         0.0882
     46 H15        -5.0881   -1.5318   -0.1831 H         1 <1>         0.1217
     47 H16        -3.3739   -1.9640   -0.4712 H         1 <1>         0.0894
     48 H17        -4.1175   -0.6081   -1.3596 H         1 <1>         0.0894
     49 H18        10.3933   -0.4285    0.5652 H         1 <1>         0.1230
     50 H19         8.7464   -1.0578    0.8811 H         1 <1>         0.0911
     51 H20         9.2869    0.4607    1.6443 H         1 <1>         0.0910
     52 H21         4.1901    2.8297   -4.1467 H         1 <1>         0.1251
     53 H22         3.7236    1.5584   -2.9747 H         1 <1>         0.0907
     54 H23         5.2909    1.4656   -3.8205 H         1 <1>         0.0906
     55 H24         2.5775    0.4040    0.0878 H         1 <1>         0.3460
@<TRIPOS>BOND
     1    1    6 ar
     2    1   12 ar
     3    2    7 ar
     4    2   12 ar
     5    3    8 ar
     6    3   13 ar
     7    4    9 ar
     8    4   13 ar
     9    5   10 ar
    10    5   14 ar
    11    6   15 ar
    12    7   15 ar
    13    8   16 ar
    14    9   16 ar
    15   10   17 ar
    16   11   17 ar
    17   11   18 ar
    18   12   19 1
    19   13   20 1
    20   14   18 ar
    21   14   21 1
    22   15   28 1
    23   16   29 1
    24   17   30 1
    25   18   31 1
    26   19   20 2
    27   19   26 1
    28   20   27 1
    29   21   26 2
    30   21   27 1
    31   22   28 1
    32   23   29 1
    33   24   30 1
    34   25   31 1
    35    1   32 1
    36    2   33 1
    37    3   34 1
    38    4   35 1
    39    5   36 1
    40    6   37 1
    41    7   38 1
    42    8   39 1
    43    9   40 1
    44   10   41 1
    45   11   42 1
    46   22   43 1
    47   22   44 1
    48   22   45 1
    49   23   46 1
    50   23   47 1
    51   23   48 1
    52   24   49 1
    53   24   50 1
    54   24   51 1
    55   25   52 1
    56   25   53 1
    57   25   54 1
    58   27   55 1
@<TRIPOS>Similarity
1.4082
@<TRIPOS>ShapeSim
0.8574
@<TRIPOS>PharmSim
0.5508
# END
# Name:		AN-989/42063253
# Created and modified by SHAFTS on Mon Jul  5 00:36:42 2010

# 

@<TRIPOS>MOLECULE
AN-989/42063253
   36    39     0
SMALL
USER_CHARGE


@<TRIPOS>ATOM
      1 C1          5.4183    2.3315   -0.6419 C.ar      1 <1>        -0.0682
      2 C2          5.2636    0.2367    0.5518 C.ar      1 <1>        -0.0742
      3 C3          0.8825    5.1374    1.0707 C.ar      1 <1>        -0.0612
      4 C4         -0.2067    4.6636   -1.0332 C.ar      1 <1>        -0.0648
      5 C5          6.8089    2.2241   -0.6502 C.ar      1 <1>        -0.0915
      6 C6          6.6542    0.1293    0.5436 C.ar      1 <1>        -0.0948
      7 C7          0.2872    6.3986    1.0948 C.ar      1 <1>        -0.0380
      8 C8         -0.8020    5.9248   -1.0090 C.ar      1 <1>        -0.0383
      9 C9         -0.9915    0.2954   -0.0275 C.2       1 <1>         0.0630
     10 C10         0.6356    4.2699    0.0066 C.ar      1 <1>        -0.0202
     11 C11         4.6455    1.3378   -0.0409 C.ar      1 <1>        -0.0192
     12 C12         7.4269    1.1230   -0.0574 C.ar      1 <1>        -0.1123
     13 C13        -0.5551    6.7923    0.0550 C.ar      1 <1>         0.0699
     14 C14         1.0974    0.4997   -0.0189 C.2       1 <1>         0.1209
     15 C15         2.6053    2.8416   -0.0192 C.2       1 <1>         0.0181
     16 C16         1.2645    2.9369   -0.0192 C.2       1 <1>         0.0365
     17 C17         3.1629    1.4510   -0.0319 C.2       1 <1>         0.0277
     18 C18         8.9140    1.0081   -0.0675 C.3       1 <1>        -0.0398
     19 N1          0.1584   -0.4249   -0.0186 N.2       1 <1>        -0.3084
     20 N2         -0.8482    1.6171   -0.0329 N.2       1 <1>        -0.2993
     21 N3          2.4521    0.3602   -0.0199 N.2       1 <1>        -0.2935
     22 N4          0.5023    1.7636   -0.0220 N.pl3     1 <1>        -0.2242
     23 F1         -1.1282    8.0027    0.0789 F         1 <1>        -0.2601
     24 H1          4.9465    3.1934   -1.1067 H         1 <1>         0.1470
     25 H2          4.6716   -0.5435    1.0232 H         1 <1>         0.1338
     26 H3          1.5365    4.8446    1.8886 H         1 <1>         0.1666
     27 H4         -0.4090    3.9987   -1.8695 H         1 <1>         0.1495
     28 H5          7.4030    3.0027   -1.1210 H         1 <1>         0.1233
     29 H6          7.1275   -0.7323    1.0074 H         1 <1>         0.1230
     30 H7          0.4790    7.0742    1.9231 H         1 <1>         0.1376
     31 H8         -1.4582    6.2314   -1.8183 H         1 <1>         0.1392
     32 H9         -1.9720   -0.1568   -0.0309 H         1 <1>         0.3126
     33 H10         3.2740    3.6942   -0.0173 H         1 <1>         0.1669
     34 H11         9.3398    1.4852    0.8236 H         1 <1>         0.0603
     35 H12         9.2322   -0.0422   -0.0856 H         1 <1>         0.0561
     36 H13         9.3443    1.4858   -0.9574 H         1 <1>         0.0563
@<TRIPOS>BOND
     1    1    5 ar
     2    1   11 ar
     3    2    6 ar
     4    2   11 ar
     5    3    7 ar
     6    3   10 ar
     7    4    8 ar
     8    4   10 ar
     9    5   12 ar
    10    6   12 ar
    11    7   13 ar
    12    8   13 ar
    13    9   19 1
    14    9   20 2
    15   10   16 1
    16   11   17 1
    17   12   18 1
    18   13   23 1
    19   14   19 2
    20   14   21 1
    21   14   22 1
    22   15   16 2
    23   15   17 1
    24   16   22 1
    25   17   21 2
    26   20   22 1
    27    1   24 1
    28    2   25 1
    29    3   26 1
    30    4   27 1
    31    5   28 1
    32    6   29 1
    33    7   30 1
    34    8   31 1
    35    9   32 1
    36   15   33 1
    37   18   34 1
    38   18   35 1
    39   18   36 1
@<TRIPOS>Similarity
1.4069
@<TRIPOS>ShapeSim
0.9359
@<TRIPOS>PharmSim
0.4710
# END
# Name:		AF-399/13200039
# Created and modified by SHAFTS on Mon Jul  5 00:36:42 2010

# 

@<TRIPOS>MOLECULE
AF-399/13200039
   42    45     0
SMALL
USER_CHARGE


@<TRIPOS>ATOM
      1 C1          5.4734    1.7814   -1.1144 C.ar      1 <1>        -0.0702
      2 C2          5.3436    0.6666    1.0250 C.ar      1 <1>        -0.0764
      3 C3          0.3096    5.2281    1.3480 C.ar      1 <1>        -0.0821
      4 C4          0.2751    4.6390   -0.9948 C.ar      1 <1>        -0.0869
      5 C5          6.8562    1.5989   -1.1256 C.ar      1 <1>        -0.0913
      6 C6          6.7264    0.4839    1.0138 C.ar      1 <1>        -0.0949
      7 C7         -0.3537    6.4204    1.0580 C.ar      1 <1>        -0.0526
      8 C8         -0.3882    5.8312   -1.2849 C.ar      1 <1>        -0.0625
      9 C9         -0.9837    0.5252    0.0467 C.2       1 <1>         0.0567
     10 C10         4.7171    1.3153   -0.0391 C.ar      1 <1>        -0.0254
     11 C11         0.6241    4.3375    0.3216 C.ar      1 <1>        -0.0689
     12 C12         7.4827    0.9501   -0.0615 C.ar      1 <1>        -0.1118
     13 C13        -0.7027    6.7220   -0.2584 C.ar      1 <1>         0.0089
     14 C14         1.1231    0.6448    0.0007 C.2       1 <1>         0.1021
     15 C15         3.2387    1.5093   -0.0263 C.2       1 <1>         0.0144
     16 C16         2.6978    2.9388   -0.0750 C.3       1 <1>         0.0518
     17 C17         1.3435    3.0432    0.6362 C.3       1 <1>         0.0470
     18 C18         8.9613    0.7543   -0.0746 C.3       1 <1>        -0.0394
     19 C19        -2.6333    7.7876   -1.1495 C.3       1 <1>         0.2899
     20 N1          0.1396   -0.2162   -0.1886 N.2       1 <1>        -0.3144
     21 N2         -0.7767    1.7998    0.3779 N.2       1 <1>        -0.3076
     22 N3          2.4680    0.4592   -0.0195 N.2       1 <1>        -0.2976
     23 N4          0.5604    1.8606    0.3020 N.pl3     1 <1>        -0.2697
     24 O1         -1.3511    7.8849   -0.5410 O.3       1 <1>        -0.3250
     25 F1         -2.4487    7.7812   -2.4950 F         1 <1>        -0.2252
     26 F2         -3.1875    6.5921   -0.8307 F         1 <1>        -0.2253
     27 H1          4.9949    2.2880   -1.9485 H         1 <1>         0.1478
     28 H2          4.7644    0.2993    1.8683 H         1 <1>         0.1347
     29 H3          0.5778    5.0013    2.3764 H         1 <1>         0.1323
     30 H4          0.5162    3.9510   -1.8010 H         1 <1>         0.1390
     31 H5          7.4377    1.9650   -1.9676 H         1 <1>         0.1229
     32 H6          7.2062   -0.0231    1.8469 H         1 <1>         0.1223
     33 H7         -0.5962    7.1102    1.8621 H         1 <1>         0.1378
     34 H8         -0.6577    6.0602   -2.3121 H         1 <1>         0.1235
     35 H9         -1.9829    0.1217   -0.0252 H         1 <1>         0.2914
     36 H10         3.4272    3.5503    0.4628 H         1 <1>         0.1134
     37 H11         2.6487    3.2957   -1.1031 H         1 <1>         0.1210
     38 H12         1.5207    3.0129    1.7473 H         1 <1>         0.1722
     39 H13         9.4635    1.6065    0.3994 H         1 <1>         0.0606
     40 H14         9.2467   -0.1601    0.4617 H         1 <1>         0.0564
     41 H15         9.3406    0.6528   -1.0997 H         1 <1>         0.0561
     42 H16        -3.3014    8.6165   -0.8924 H         1 <1>         0.3248
@<TRIPOS>BOND
     1    1    5 ar
     2    1   10 ar
     3    2    6 ar
     4    2   10 ar
     5    3    7 ar
     6    3   11 ar
     7    4    8 ar
     8    4   11 ar
     9    5   12 ar
    10    6   12 ar
    11    7   13 ar
    12    8   13 ar
    13    9   20 1
    14    9   21 2
    15   10   15 1
    16   11   17 1
    17   12   18 1
    18   13   24 1
    19   14   20 2
    20   14   22 1
    21   14   23 1
    22   15   16 1
    23   15   22 2
    24   16   17 1
    25   17   23 1
    26   19   24 1
    27   19   25 1
    28   19   26 1
    29   21   23 1
    30    1   27 1
    31    2   28 1
    32    3   29 1
    33    4   30 1
    34    5   31 1
    35    6   32 1
    36    7   33 1
    37    8   34 1
    38    9   35 1
    39   16   36 1
    40   16   37 1
    41   17   38 1
    42   18   39 1
    43   18   40 1
    44   18   41 1
    45   19   42 1
@<TRIPOS>Similarity
1.4067
@<TRIPOS>ShapeSim
0.9133
@<TRIPOS>PharmSim
0.4933
# END
# Name:		AG-219/33329008
# Created and modified by SHAFTS on Mon Jul  5 00:36:42 2010

# 

@<TRIPOS>MOLECULE
AG-219/33329008
   38    40     0
SMALL
USER_CHARGE


@<TRIPOS>ATOM
      1 C1         -0.6064    6.6515    0.0440 C.ar      1 <1>        -0.1014
      2 C2          0.2635    6.3106    1.0797 C.ar      1 <1>        -0.0978
      3 C3         -0.8247    5.7591   -1.0057 C.ar      1 <1>        -0.0947
      4 C4          0.9149    5.0773    1.0658 C.ar      1 <1>        -0.0783
      5 C5         -0.1732    4.5258   -1.0195 C.ar      1 <1>        -0.0726
      6 C6          5.3064    0.6193    1.0007 C.ar      1 <1>        -0.0744
      7 C7          6.6847    0.4049    0.9869 C.ar      1 <1>        -0.0514
      8 C8          5.4728    1.8228   -1.0877 C.ar      1 <1>        -0.0274
      9 C9          2.7501    2.8262   -0.0110 C.ar      1 <1>        -0.0006
     10 C10         0.6966    4.1849    0.0162 C.ar      1 <1>        -0.0296
     11 C11         4.7005    1.3282   -0.0368 C.ar      1 <1>        -0.0266
     12 C12         7.4569    0.8995   -0.0640 C.ar      1 <1>         0.0380
     13 C13         6.8510    1.6084   -1.1014 C.ar      1 <1>         0.0437
     14 C14         1.3724    2.9057    0.0024 C.ar      1 <1>         0.0040
     15 C15         3.2743    1.5497   -0.0220 C.ar      1 <1>         0.0038
     16 C16         1.1913    0.6398   -0.0069 C.ar      1 <1>         0.1422
     17 C17         9.3426   -0.0496    1.0309 C.3       1 <1>         0.0272
     18 C18         7.7725    1.2438   -3.2633 C.3       1 <1>         0.0254
     19 N1          0.5594    1.8290    0.0048 N.ar      1 <1>        -0.3276
     20 N2          2.5215    0.4301   -0.0202 N.ar      1 <1>        -0.3275
     21 O1          8.8022    0.6840   -0.0662 O.3       1 <1>        -0.4046
     22 O2          7.5942    2.0961   -2.1336 O.3       1 <1>        -0.4077
     23 Cl1         0.1994   -0.7514   -0.0044 Cl        1 <1>         0.0265
     24 H1         -1.1148    7.6111    0.0558 H         1 <1>         0.1240
     25 H2          0.4322    7.0046    1.8978 H         1 <1>         0.1213
     26 H3         -1.5029    6.0234   -1.8118 H         1 <1>         0.1215
     27 H4          1.5898    4.8262    1.8808 H         1 <1>         0.1297
     28 H5         -0.3537    3.8402   -1.8440 H         1 <1>         0.1423
     29 H6          4.7182    0.2269    1.8267 H         1 <1>         0.1350
     30 H7          7.1504   -0.1479    1.7982 H         1 <1>         0.1298
     31 H8          5.0089    2.3764   -1.9015 H         1 <1>         0.1502
     32 H9          3.3795    3.7089   -0.0126 H         1 <1>         0.1505
     33 H10        10.4235   -0.1501    0.9060 H         1 <1>         0.1236
     34 H11         8.8767   -1.0373    1.0748 H         1 <1>         0.0904
     35 H12         9.1339    0.4908    1.9573 H         1 <1>         0.0904
     36 H13         8.3833    1.7536   -4.0124 H         1 <1>         0.0896
     37 H14         6.7973    0.9882   -3.6854 H         1 <1>         0.1232
     38 H15         8.2796    0.3306   -2.9431 H         1 <1>         0.0901
@<TRIPOS>BOND
     1    1    2 ar
     2    1    3 ar
     3    2    4 ar
     4    3    5 ar
     5    4   10 ar
     6    5   10 ar
     7    6    7 ar
     8    6   11 ar
     9    7   12 ar
    10    8   11 ar
    11    8   13 ar
    12    9   14 ar
    13    9   15 ar
    14   10   14 1
    15   11   15 1
    16   12   13 ar
    17   12   21 1
    18   13   22 1
    19   14   19 ar
    20   15   20 ar
    21   16   19 ar
    22   16   20 ar
    23   16   23 1
    24   17   21 1
    25   18   22 1
    26    1   24 1
    27    2   25 1
    28    3   26 1
    29    4   27 1
    30    5   28 1
    31    6   29 1
    32    7   30 1
    33    8   31 1
    34    9   32 1
    35   17   33 1
    36   17   34 1
    37   17   35 1
    38   18   36 1
    39   18   37 1
    40   18   38 1
@<TRIPOS>Similarity
1.4060
@<TRIPOS>ShapeSim
0.8942
@<TRIPOS>PharmSim
0.5118
# END
# Name:		AE-842/32631033
# Created and modified by SHAFTS on Mon Jul  5 00:36:42 2010

# 

@<TRIPOS>MOLECULE
AE-842/32631033
   42    44     0
SMALL
USER_CHARGE


@<TRIPOS>ATOM
      1 C1         -0.6161    6.9687    0.0443 C.ar      1 <1>        -0.1016
      2 C2          7.5551    1.1811   -0.0633 C.ar      1 <1>        -0.1016
      3 C3         -0.7790    6.0642   -1.0049 C.ar      1 <1>        -0.0967
      4 C4          0.2723    6.6820    1.0807 C.ar      1 <1>        -0.0987
      5 C5          6.7569    0.7288    0.9874 C.ar      1 <1>        -0.0967
      6 C6          6.9888    1.9228   -1.1001 C.ar      1 <1>        -0.0987
      7 C7         -0.0535    4.8729   -1.0177 C.ar      1 <1>        -0.0795
      8 C8          0.9978    5.4907    1.0680 C.ar      1 <1>        -0.0826
      9 C9          5.3924    1.0183    1.0014 C.ar      1 <1>        -0.0795
     10 C10         5.6243    2.2123   -1.0861 C.ar      1 <1>        -0.0826
     11 C11         0.8350    4.5862    0.0188 C.ar      1 <1>        -0.0472
     12 C12         4.8261    1.7600   -0.0353 C.ar      1 <1>        -0.0472
     13 C13         1.1615    2.0444    0.0015 C.2       1 <1>         0.0979
     14 C14         2.3175    1.2255   -0.0145 C.2       1 <1>         0.0979
     15 C15         1.5858    3.3548    0.0049 C.2       1 <1>        -0.0068
     16 C16         3.4129    2.0605   -0.0202 C.2       1 <1>        -0.0068
     17 C17        -0.2128    1.6247    0.0124 C.2       1 <1>         0.1967
     18 C18         2.3773   -0.2104   -0.0232 C.2       1 <1>         0.1967
     19 C19        -1.7260   -0.1015   -0.6877 C.3       1 <1>         0.0391
     20 C20         3.6653   -2.0999   -0.7511 C.3       1 <1>         0.0391
     21 N1          2.9562    3.3526   -0.0080 N.pl3     1 <1>        -0.3303
     22 O1         -1.1524    2.2578    0.5358 O.2       1 <1>        -0.4346
     23 O2          1.5288   -0.9670    0.4915 O.2       1 <1>        -0.4346
     24 O3         -0.3952    0.4232   -0.6303 O.3       1 <1>        -0.3460
     25 O4          3.4930   -0.6807   -0.6742 O.3       1 <1>        -0.3459
     26 H1         -1.1807    7.8965    0.0538 H         1 <1>         0.1226
     27 H2          8.6176    0.9562   -0.0738 H         1 <1>         0.1226
     28 H3         -1.4710    6.2875   -1.8118 H         1 <1>         0.1235
     29 H4          0.3999    7.3869    1.8972 H         1 <1>         0.1218
     30 H5          7.1980    0.1511    1.7945 H         1 <1>         0.1235
     31 H6          7.6105    2.2759   -1.9177 H         1 <1>         0.1218
     32 H7         -0.1896    4.1793   -1.8441 H         1 <1>         0.1326
     33 H8          1.6856    5.2815    1.8838 H         1 <1>         0.1252
     34 H9          4.7842    0.6609    1.8289 H         1 <1>         0.1327
     35 H10         5.1978    2.7906   -1.9022 H         1 <1>         0.1252
     36 H11        -1.7202   -1.0537   -1.2239 H         1 <1>         0.0976
     37 H12        -2.3782    0.6120   -1.1976 H         1 <1>         0.0968
     38 H13        -2.0893   -0.2613    0.3302 H         1 <1>         0.1263
     39 H14         4.5873   -2.3269   -1.2920 H         1 <1>         0.1264
     40 H15         2.8096   -2.5443   -1.2655 H         1 <1>         0.0968
     41 H16         3.7302   -2.5054    0.2613 H         1 <1>         0.0975
     42 H17         3.5407    4.1778   -0.0089 H         1 <1>         0.3573
@<TRIPOS>BOND
     1    1    3 ar
     2    1    4 ar
     3    2    5 ar
     4    2    6 ar
     5    3    7 ar
     6    4    8 ar
     7    5    9 ar
     8    6   10 ar
     9    7   11 ar
    10    8   11 ar
    11    9   12 ar
    12   10   12 ar
    13   11   15 1
    14   12   16 1
    15   13   14 1
    16   13   15 2
    17   13   17 1
    18   14   16 2
    19   14   18 1
    20   15   21 1
    21   16   21 1
    22   17   22 2
    23   17   24 1
    24   18   23 2
    25   18   25 1
    26   19   24 1
    27   20   25 1
    28    1   26 1
    29    2   27 1
    30    3   28 1
    31    4   29 1
    32    5   30 1
    33    6   31 1
    34    7   32 1
    35    8   33 1
    36    9   34 1
    37   10   35 1
    38   19   36 1
    39   19   37 1
    40   19   38 1
    41   20   39 1
    42   20   40 1
    43   20   41 1
    44   21   42 1
@<TRIPOS>Similarity
1.4059
@<TRIPOS>ShapeSim
0.9024
@<TRIPOS>PharmSim
0.5034
# END
# Name:		AG-690/10517051
# Created and modified by SHAFTS on Mon Jul  5 00:36:42 2010

# 

@<TRIPOS>MOLECULE
AG-690/10517051
   51    54     0
SMALL
USER_CHARGE


@<TRIPOS>ATOM
      1 C1         -0.4089    4.5494   -0.5736 C.ar      1 <1>        -0.0754
      2 C2          1.2900    5.7816    0.6232 C.ar      1 <1>        -0.0675
      3 C3         -0.9112    1.8025    1.0690 C.ar      1 <1>        -0.0736
      4 C4         -0.4344    0.7117   -1.0332 C.ar      1 <1>        -0.0768
      5 C5          5.8305    2.5894   -0.6454 C.ar      1 <1>        -0.0601
      6 C6          5.1833    0.5984    0.5607 C.ar      1 <1>        -0.0647
      7 C7         -1.2344    5.6735   -0.5592 C.ar      1 <1>        -0.0668
      8 C8          0.4644    6.9058    0.6376 C.ar      1 <1>        -0.0549
      9 C9         -2.1819    1.2272    1.0793 C.ar      1 <1>        -0.0549
     10 C10        -1.7050    0.1363   -1.0230 C.ar      1 <1>        -0.0628
     11 C11         7.1543    2.1502   -0.6599 C.ar      1 <1>        -0.0829
     12 C12         6.5072    0.1592    0.5460 C.ar      1 <1>        -0.0808
     13 C13         0.8533    4.6033    0.0177 C.ar      1 <1>        -0.0386
     14 C14        -0.0374    1.5448    0.0127 C.ar      1 <1>        -0.0506
     15 C15         4.8450    1.8134   -0.0351 C.ar      1 <1>        -0.0108
     16 C16        -0.7978    6.8518    0.0464 C.ar      1 <1>        -0.0163
     17 C17        -2.5787    0.3941    0.0335 C.ar      1 <1>        -0.0128
     18 C18         7.4926    0.9352   -0.0642 C.ar      1 <1>        -0.0710
     19 C19         1.7035    3.4462    0.0037 C.2       1 <1>        -0.0037
     20 C20         1.2758    2.1395    0.0020 C.2       1 <1>        -0.0214
     21 C21         3.4757    2.2675   -0.0195 C.2       1 <1>         0.0155
     22 C22        -2.8807    7.8248   -0.5623 C.3       1 <1>         0.0225
     23 C23        -4.1594   -1.0087   -1.0572 C.3       1 <1>         0.0239
     24 C24         9.2064   -0.5725    1.4534 C.3       1 <1>        -0.0133
     25 N1          3.0739    3.5191   -0.0101 N.2       1 <1>        -0.3632
     26 N2          2.4222    1.3961   -0.0134 N.pl3     1 <1>        -0.3271
     27 O1         -1.6030    7.9491    0.0603 O.3       1 <1>        -0.4198
     28 O2         -3.8186   -0.1672    0.0435 O.3       1 <1>        -0.4175
     29 S1          9.1839    0.3737   -0.0850 S.3       1 <1>        -0.2159
     30 H1         -0.7635    3.6383   -1.0498 H         1 <1>         0.1367
     31 H2          2.2710    5.8396    1.0889 H         1 <1>         0.1378
     32 H3         -0.6167    2.4497    1.8918 H         1 <1>         0.1341
     33 H4          0.2352    0.5011   -1.8639 H         1 <1>         0.1391
     34 H5          5.5824    3.5385   -1.1144 H         1 <1>         0.1499
     35 H6          4.4261   -0.0179    1.0394 H         1 <1>         0.1293
     36 H7         -2.2168    5.6260   -1.0213 H         1 <1>         0.1114
     37 H8          0.8104    7.8203    1.1118 H         1 <1>         0.1276
     38 H9         -2.8582    1.4317    1.9050 H         1 <1>         0.1302
     39 H10        -2.0086   -0.5118   -1.8405 H         1 <1>         0.1164
     40 H11         7.9088    2.7689   -1.1404 H         1 <1>         0.1222
     41 H12         6.7522   -0.7901    1.0159 H         1 <1>         0.1327
     42 H13        -3.4206    8.7713   -0.4800 H         1 <1>         0.1206
     43 H14        -3.4475    7.0264   -0.0769 H         1 <1>         0.0887
     44 H15        -2.7395    7.5791   -1.6175 H         1 <1>         0.0884
     45 H16        -5.1745   -1.3907   -0.9242 H         1 <1>         0.1220
     46 H17        -3.4510   -1.8390   -1.1153 H         1 <1>         0.0903
     47 H18        -4.1101   -0.4250   -1.9794 H         1 <1>         0.0893
     48 H19        10.1979   -1.0045    1.6097 H         1 <1>         0.0690
     49 H20         8.4702   -1.3786    1.4040 H         1 <1>         0.0690
     50 H21         8.9646    0.0814    2.2948 H         1 <1>         0.0871
     51 H22         2.4809    0.3858   -0.0186 H         1 <1>         0.3500
@<TRIPOS>BOND
     1    1    7 ar
     2    1   13 ar
     3    2    8 ar
     4    2   13 ar
     5    3    9 ar
     6    3   14 ar
     7    4   10 ar
     8    4   14 ar
     9    5   11 ar
    10    5   15 ar
    11    6   12 ar
    12    6   15 ar
    13    7   16 ar
    14    8   16 ar
    15    9   17 ar
    16   10   17 ar
    17   11   18 ar
    18   12   18 ar
    19   13   19 1
    20   14   20 1
    21   15   21 1
    22   16   27 1
    23   17   28 1
    24   18   29 1
    25   19   20 2
    26   19   25 1
    27   20   26 1
    28   21   25 2
    29   21   26 1
    30   22   27 1
    31   23   28 1
    32   24   29 1
    33    1   30 1
    34    2   31 1
    35    3   32 1
    36    4   33 1
    37    5   34 1
    38    6   35 1
    39    7   36 1
    40    8   37 1
    41    9   38 1
    42   10   39 1
    43   11   40 1
    44   12   41 1
    45   22   42 1
    46   22   43 1
    47   22   44 1
    48   23   45 1
    49   23   46 1
    50   23   47 1
    51   24   48 1
    52   24   49 1
    53   24   50 1
    54   26   51 1
@<TRIPOS>Similarity
1.4058
@<TRIPOS>ShapeSim
0.8624
@<TRIPOS>PharmSim
0.5434
# END
# Name:		AG-205/08567008
# Created and modified by SHAFTS on Mon Jul  5 00:36:42 2010

# 

@<TRIPOS>MOLECULE
AG-205/08567008
   43    45     0
SMALL
USER_CHARGE


@<TRIPOS>ATOM
      1 C1         -0.9598    1.8566    0.0167 C.1       1 <1>         0.0754
      2 C2          7.3939    1.0357   -0.0644 C.ar      1 <1>        -0.1033
      3 C3          6.7665    1.7273   -1.1005 C.ar      1 <1>        -0.0992
      4 C4          6.6374    0.5176    0.9868 C.ar      1 <1>        -0.0970
      5 C5          5.3825    1.9010   -1.0853 C.ar      1 <1>        -0.0791
      6 C6          5.2535    0.6914    1.0021 C.ar      1 <1>        -0.0750
      7 C7          0.9236    5.1239    1.0672 C.ar      1 <1>        -0.0858
      8 C8         -0.1948    4.6391   -1.0188 C.ar      1 <1>        -0.0750
      9 C9          0.3498    6.3953    1.0793 C.ar      1 <1>        -0.0647
     10 C10        -0.7686    5.9105   -1.0066 C.ar      1 <1>        -0.0519
     11 C11         2.6331    2.8297   -0.0067 C.ar      1 <1>        -0.0197
     12 C12         0.4732    1.7717    0.0049 C.ar      1 <1>         0.1145
     13 C13         0.6514    4.2459    0.0181 C.ar      1 <1>        -0.0576
     14 C14         4.6260    1.3830   -0.0340 C.ar      1 <1>        -0.0322
     15 C15         1.2462    2.9275    0.0054 C.ar      1 <1>        -0.0112
     16 C16        -0.4962    6.7885    0.0425 C.ar      1 <1>        -0.0109
     17 C17         3.1938    1.5628   -0.0189 C.ar      1 <1>        -0.0038
     18 C18         1.1307    0.5521   -0.0080 C.ar      1 <1>         0.0546
     19 C19         2.4056   -2.6756    0.0379 C.3       1 <1>        -0.0501
     20 C20        -1.9117    8.3660   -1.0362 C.3       1 <1>         0.0249
     21 C21         1.4294   -2.0162   -0.9178 C.3       1 <1>        -0.0008
     22 N1         -2.1182    1.9252    0.0262 N.1       1 <1>        -0.3613
     23 N2          2.4758    0.4172   -0.0198 N.ar      1 <1>        -0.3615
     24 O1         -1.0565    8.0287    0.0548 O.3       1 <1>        -0.4157
     25 S1          0.2415   -1.0041   -0.0120 S.3       1 <1>        -0.1285
     26 H1          8.4713    0.8992   -0.0773 H         1 <1>         0.1212
     27 H2          7.3550    2.1293   -1.9199 H         1 <1>         0.1198
     28 H3          7.1252   -0.0221    1.7932 H         1 <1>         0.1188
     29 H4          4.9081    2.4424   -1.9005 H         1 <1>         0.1299
     30 H5          4.6769    0.2814    1.8278 H         1 <1>         0.1378
     31 H6          1.5810    4.8320    1.8826 H         1 <1>         0.1320
     32 H7         -0.4169    3.9663   -1.8435 H         1 <1>         0.1439
     33 H8          0.5655    7.0748    1.8994 H         1 <1>         0.1164
     34 H9         -1.4271    6.2114   -1.8169 H         1 <1>         0.1340
     35 H10         3.2597    3.7173   -0.0069 H         1 <1>         0.1495
     36 H11         2.9632   -1.9332    0.6187 H         1 <1>         0.0522
     37 H12         1.8945   -3.3499    0.7334 H         1 <1>         0.0429
     38 H13         3.1335   -3.2700   -0.5244 H         1 <1>         0.0428
     39 H14        -2.2911    9.3821   -0.9022 H         1 <1>         0.0903
     40 H15        -2.7432    7.6582   -1.0809 H         1 <1>         0.0901
     41 H16        -1.3400    8.3127   -1.9658 H         1 <1>         0.1233
     42 H17         0.8842   -2.7755   -1.4868 H         1 <1>         0.0849
     43 H18         1.9658   -1.3795   -1.6278 H         1 <1>         0.0850
@<TRIPOS>BOND
     1    1   12 1
     2    1   22 3
     3    2    3 ar
     4    2    4 ar
     5    3    5 ar
     6    4    6 ar
     7    5   14 ar
     8    6   14 ar
     9    7    9 ar
    10    7   13 ar
    11    8   10 ar
    12    8   13 ar
    13    9   16 ar
    14   10   16 ar
    15   11   15 ar
    16   11   17 ar
    17   12   15 ar
    18   12   18 ar
    19   13   15 1
    20   14   17 1
    21   16   24 1
    22   17   23 ar
    23   18   23 ar
    24   18   25 1
    25   19   21 1
    26   20   24 1
    27   21   25 1
    28    2   26 1
    29    3   27 1
    30    4   28 1
    31    5   29 1
    32    6   30 1
    33    7   31 1
    34    8   32 1
    35    9   33 1
    36   10   34 1
    37   11   35 1
    38   19   36 1
    39   19   37 1
    40   19   38 1
    41   20   39 1
    42   20   40 1
    43   20   41 1
    44   21   42 1
    45   21   43 1
@<TRIPOS>Similarity
1.4044
@<TRIPOS>ShapeSim
0.9044
@<TRIPOS>PharmSim
0.5000
# END
# Name:		AH-262/11507006
# Created and modified by SHAFTS on Mon Jul  5 00:36:42 2010

# 

@<TRIPOS>MOLECULE
AH-262/11507006
   41    45     0
SMALL
USER_CHARGE


@<TRIPOS>ATOM
      1 C1         -0.6524    6.9412    0.0452 C.ar      1 <1>        -0.1039
      2 C2          7.3920    1.1608   -0.0620 C.ar      1 <1>        -0.0948
      3 C3         -1.1667    5.7944   -0.5598 C.ar      1 <1>        -0.0989
      4 C4          0.6106    6.9112    0.6365 C.ar      1 <1>        -0.0954
      5 C5         -1.5795   -2.0305    0.0075 C.ar      1 <1>        -0.0824
      6 C6         -0.4203   -2.8058   -0.0079 C.ar      1 <1>        -0.0825
      7 C7          6.5828    0.7312    0.9897 C.ar      1 <1>        -0.0847
      8 C8          6.8449    1.9157   -1.0995 C.ar      1 <1>        -0.0868
      9 C9         -0.4180    4.6176   -0.5734 C.ar      1 <1>        -0.0760
     10 C10         1.3593    5.7343    0.6229 C.ar      1 <1>        -0.0712
     11 C11        -1.4950   -0.6375    0.0140 C.ar      1 <1>        -0.0598
     12 C12         0.8346   -2.1957   -0.0169 C.ar      1 <1>        -0.0595
     13 C13         5.2264    1.0563    1.0039 C.ar      1 <1>        -0.0474
     14 C14         5.4886    2.2409   -1.0854 C.ar      1 <1>        -0.0499
     15 C15         0.8450    4.5875    0.0180 C.ar      1 <1>        -0.0275
     16 C16        -0.2427   -0.0136    0.0052 C.ar      1 <1>         0.0374
     17 C17         0.9312   -0.8001   -0.0103 C.ar      1 <1>         0.0440
     18 C18         1.1401    2.0502    0.0023 C.2       1 <1>         0.0856
     19 C19         4.6792    1.8112   -0.0337 C.ar      1 <1>         0.0111
     20 C20         1.6183    3.3722    0.0043 C.2       1 <1>         0.0433
     21 C21         2.2701    1.2688   -0.0124 C.2       1 <1>         0.1096
     22 C22        -0.1839    1.4813    0.0120 C.2       1 <1>         0.1299
     23 C23         2.2858   -0.1659   -0.0196 C.2       1 <1>         0.1548
     24 N1          2.9542    3.4309   -0.0094 N.2       1 <1>        -0.2812
     25 N2          3.3229    2.1360   -0.0187 N.pl3     1 <1>        -0.2509
     26 O1         -1.2023    2.1596    0.0250 O.2       1 <1>        -0.4286
     27 O2          3.2948   -0.8603   -0.0325 O.2       1 <1>        -0.4210
     28 H1         -1.2348    7.8579    0.0550 H         1 <1>         0.1194
     29 H2          8.4484    0.9095   -0.0726 H         1 <1>         0.1293
     30 H3         -2.1494    5.8179   -1.0212 H         1 <1>         0.1175
     31 H4          1.0113    7.8045    1.1063 H         1 <1>         0.1199
     32 H5         -2.5527   -2.5132    0.0143 H         1 <1>         0.1389
     33 H6         -0.4948   -3.8897   -0.0131 H         1 <1>         0.1374
     34 H7          7.0088    0.1445    1.7984 H         1 <1>         0.1323
     35 H8          7.4760    2.2511   -1.9175 H         1 <1>         0.1306
     36 H9         -0.8328    3.7318   -1.0489 H         1 <1>         0.1296
     37 H10         2.3423    5.7273    1.0883 H         1 <1>         0.1382
     38 H11        -2.4148   -0.0591    0.0259 H         1 <1>         0.1504
     39 H12         1.7204   -2.8247   -0.0288 H         1 <1>         0.1502
     40 H13         4.6070    0.7158    1.8301 H         1 <1>         0.1487
     41 H14         5.0752    2.8305   -1.9001 H         1 <1>         0.1443
@<TRIPOS>BOND
     1    1    3 ar
     2    1    4 ar
     3    2    7 ar
     4    2    8 ar
     5    3    9 ar
     6    4   10 ar
     7    5    6 ar
     8    5   11 ar
     9    6   12 ar
    10    7   13 ar
    11    8   14 ar
    12    9   15 ar
    13   10   15 ar
    14   11   16 ar
    15   12   17 ar
    16   13   19 ar
    17   14   19 ar
    18   15   20 1
    19   16   17 ar
    20   16   22 1
    21   17   23 1
    22   18   20 1
    23   18   21 2
    24   18   22 1
    25   19   25 1
    26   20   24 2
    27   21   23 1
    28   21   25 1
    29   22   26 2
    30   23   27 2
    31   24   25 1
    32    1   28 1
    33    2   29 1
    34    3   30 1
    35    4   31 1
    36    5   32 1
    37    6   33 1
    38    7   34 1
    39    8   35 1
    40    9   36 1
    41   10   37 1
    42   11   38 1
    43   12   39 1
    44   13   40 1
    45   14   41 1
@<TRIPOS>Similarity
1.4038
@<TRIPOS>ShapeSim
0.8899
@<TRIPOS>PharmSim
0.5138
# END
# Name:		AG-205/11945045
# Created and modified by SHAFTS on Mon Jul  5 00:36:42 2010

# 

@<TRIPOS>MOLECULE
AG-205/11945045
   55    58     0
SMALL
USER_CHARGE


@<TRIPOS>ATOM
      1 C1         -0.0181    4.7117   -0.9869 C.ar      1 <1>        -0.0754
      2 C2          1.0353    5.5112    1.0350 C.ar      1 <1>        -0.0675
      3 C3         -0.6921    1.7426    1.2220 C.ar      1 <1>        -0.0737
      4 C4         -0.2637    0.6021   -0.8642 C.ar      1 <1>        -0.0768
      5 C5          5.4133    0.7119    0.5041 C.ar      1 <1>        -0.0724
      6 C6         -0.8785    5.8095   -0.9727 C.ar      1 <1>        -0.0668
      7 C7          0.1749    6.6090    1.0493 C.ar      1 <1>        -0.0549
      8 C8         -1.9423    1.1288    1.3008 C.ar      1 <1>        -0.0550
      9 C9         -1.5138   -0.0117   -0.7855 C.ar      1 <1>        -0.0628
     10 C10         6.7488    0.3134    0.4484 C.ar      1 <1>        -0.0541
     11 C11         5.9479    2.6834   -0.7861 C.ar      1 <1>        -0.0203
     12 C12         0.9388    4.5624    0.0171 C.ar      1 <1>        -0.0387
     13 C13         0.1472    1.4792    0.1394 C.ar      1 <1>        -0.0507
     14 C14         5.0128    1.8969   -0.1134 C.ar      1 <1>        -0.0143
     15 C15        -0.7820    6.7581    0.0453 C.ar      1 <1>        -0.0163
     16 C16        -2.3530    0.2518    0.2972 C.ar      1 <1>        -0.0129
     17 C17         7.6839    1.0999   -0.2243 C.ar      1 <1>         0.0360
     18 C18         7.2834    2.2850   -0.8416 C.ar      1 <1>         0.0441
     19 C19         1.8245    3.4323    0.0034 C.2       1 <1>        -0.0040
     20 C20         1.4392    2.1135    0.0580 C.2       1 <1>        -0.0214
     21 C21         3.6313    2.3087   -0.0561 C.2       1 <1>         0.0147
     22 C22        -2.5757    7.9207   -0.9973 C.3       1 <1>         0.0225
     23 C23        -3.9296   -1.2325   -0.6864 C.3       1 <1>         0.0239
     24 C24         9.3123   -0.5228    0.3847 C.3       1 <1>         0.0257
     25 C25         8.3816    2.7929   -2.8890 C.3       1 <1>         0.0257
     26 N1          3.1902    3.5471   -0.0679 N.2       1 <1>        -0.3632
     27 N2          2.6074    1.4058    0.0186 N.pl3     1 <1>        -0.3265
     28 O1         -1.6212    7.8296    0.0594 O.3       1 <1>        -0.4198
     29 O2         -3.5729   -0.3471    0.3740 O.3       1 <1>        -0.4176
     30 O3          8.9855    0.7005   -0.2716 O.3       1 <1>        -0.4071
     31 O4          8.1870    3.0618   -1.5020 O.3       1 <1>        -0.4068
     32 H1         -0.1057    3.9808   -1.7872 H         1 <1>         0.1365
     33 H2          1.7756    5.4089    1.8251 H         1 <1>         0.1378
     34 H3         -0.3863    2.4239    2.0125 H         1 <1>         0.1340
     35 H4          0.3791    0.3865   -1.7146 H         1 <1>         0.1391
     36 H5          4.6966    0.0877    1.0322 H         1 <1>         0.1227
     37 H6         -1.6219    5.9208   -1.7572 H         1 <1>         0.1113
     38 H7          0.2550    7.3440    1.8456 H         1 <1>         0.1275
     39 H8         -2.5917    1.3380    2.1466 H         1 <1>         0.1301
     40 H9         -1.8284   -0.6940   -1.5704 H         1 <1>         0.1163
     41 H10         7.0541   -0.6107    0.9315 H         1 <1>         0.1283
     42 H11         5.6451    3.6091   -1.2711 H         1 <1>         0.1501
     43 H12        -3.1809    8.8209   -0.8659 H         1 <1>         0.1206
     44 H13        -3.2151    7.0344   -0.9893 H         1 <1>         0.0888
     45 H14        -2.0457    7.9766   -1.9511 H         1 <1>         0.0884
     46 H15        -4.9259   -1.6414   -0.5012 H         1 <1>         0.1220
     47 H16        -3.1977   -2.0419   -0.7482 H         1 <1>         0.0903
     48 H17        -3.9354   -0.6766   -1.6269 H         1 <1>         0.0893
     49 H18        10.3803   -0.7243    0.2709 H         1 <1>         0.0892
     50 H19         8.7284   -1.3379   -0.0503 H         1 <1>         0.0892
     51 H20         9.0722   -0.4317    1.4467 H         1 <1>         0.1227
     52 H21         9.1266    3.4824   -3.2936 H         1 <1>         0.0900
     53 H22         7.4338    2.9108   -3.4204 H         1 <1>         0.0903
     54 H23         8.7371    1.7664   -3.0057 H         1 <1>         0.1224
     55 H24         2.6982    0.3982    0.0411 H         1 <1>         0.3502
@<TRIPOS>BOND
     1    1    6 ar
     2    1   12 ar
     3    2    7 ar
     4    2   12 ar
     5    3    8 ar
     6    3   13 ar
     7    4    9 ar
     8    4   13 ar
     9    5   10 ar
    10    5   14 ar
    11    6   15 ar
    12    7   15 ar
    13    8   16 ar
    14    9   16 ar
    15   10   17 ar
    16   11   14 ar
    17   11   18 ar
    18   12   19 1
    19   13   20 1
    20   14   21 1
    21   15   28 1
    22   16   29 1
    23   17   18 ar
    24   17   30 1
    25   18   31 1
    26   19   20 2
    27   19   26 1
    28   20   27 1
    29   21   26 2
    30   21   27 1
    31   22   28 1
    32   23   29 1
    33   24   30 1
    34   25   31 1
    35    1   32 1
    36    2   33 1
    37    3   34 1
    38    4   35 1
    39    5   36 1
    40    6   37 1
    41    7   38 1
    42    8   39 1
    43    9   40 1
    44   10   41 1
    45   11   42 1
    46   22   43 1
    47   22   44 1
    48   22   45 1
    49   23   46 1
    50   23   47 1
    51   23   48 1
    52   24   49 1
    53   24   50 1
    54   24   51 1
    55   25   52 1
    56   25   53 1
    57   25   54 1
    58   27   55 1
@<TRIPOS>Similarity
1.4038
@<TRIPOS>ShapeSim
0.8578
@<TRIPOS>PharmSim
0.5460
# END
# Name:		AK-087/42718365
# Created and modified by SHAFTS on Mon Jul  5 00:36:42 2010

# 

@<TRIPOS>MOLECULE
AK-087/42718365
   38    39     0
SMALL
USER_CHARGE


@<TRIPOS>ATOM
      1 C1          5.2494    2.1935   -0.8781 C.ar      1 <1>        -0.0830
      2 C2          5.1324    0.3616    0.6927 C.ar      1 <1>        -0.0708
      3 C3          1.2152    5.5781    0.7337 C.ar      1 <1>        -0.0952
      4 C4         -0.5538    4.3653   -0.3784 C.ar      1 <1>        -0.1048
      5 C5          6.6423    2.1576   -0.8162 C.ar      1 <1>        -0.0655
      6 C6          6.5254    0.3256    0.7545 C.ar      1 <1>        -0.0508
      7 C7          0.5740    6.7818    0.4411 C.ar      1 <1>        -0.0626
      8 C8         -1.1950    5.5690   -0.6709 C.ar      1 <1>        -0.0753
      9 C9          4.4943    1.2955   -0.1236 C.ar      1 <1>        -0.0145
     10 C10         0.6514    4.3700    0.3239 C.ar      1 <1>        -0.1130
     11 C11         7.2804    1.2237    0.0000 C.ar      1 <1>        -0.0103
     12 C12        -0.6313    6.7772   -0.2611 C.ar      1 <1>        -0.0197
     13 C13         3.0419    1.3326   -0.1880 C.2       1 <1>         0.0665
     14 C14         9.2264    0.2084    0.9155 C.3       1 <1>         0.0262
     15 C15        -2.4863    7.8746   -1.2663 C.3       1 <1>         0.0220
     16 C16         1.3438    3.0694    0.6403 C.3       1 <1>        -0.0275
     17 C17         2.3182    2.6629   -0.4675 C.3       1 <1>         0.0344
     18 O1          2.3687    0.2953   -0.0194 O.2       1 <1>        -0.4677
     19 O2          8.6396    1.1886    0.0607 O.3       1 <1>        -0.4136
     20 O3         -1.2574    7.9518   -0.5454 O.3       1 <1>        -0.4212
     21 H1          4.7631    2.9254   -1.5180 H         1 <1>         0.1410
     22 H2          4.5531   -0.3426    1.2845 H         1 <1>         0.1509
     23 H3          2.1539    5.5911    1.2812 H         1 <1>         0.1295
     24 H4         -1.0004    3.4286   -0.7018 H         1 <1>         0.1238
     25 H5          7.2248    2.8599   -1.4063 H         1 <1>         0.1141
     26 H6          7.0169   -0.4039    1.3925 H         1 <1>         0.1314
     27 H7          1.0181    7.7198    0.7633 H         1 <1>         0.1258
     28 H8         -2.1337    5.5587   -1.2179 H         1 <1>         0.1092
     29 H9         10.3151    0.2895    0.8704 H         1 <1>         0.0913
     30 H10         8.9110   -0.7887    0.5982 H         1 <1>         0.0912
     31 H11         8.8923    0.3851    1.9406 H         1 <1>         0.1237
     32 H12        -2.8795    8.8815   -1.4264 H         1 <1>         0.0883
     33 H13        -3.2050    7.2769   -0.7002 H         1 <1>         0.0881
     34 H14        -2.3020    7.4000   -2.2330 H         1 <1>         0.1209
     35 H15         0.5932    2.2831    0.7938 H         1 <1>         0.0694
     36 H16         1.8730    3.1611    1.5978 H         1 <1>         0.0698
     37 H17         3.0809    3.4419   -0.5843 H         1 <1>         0.0860
     38 H18         1.7708    2.5554   -1.4114 H         1 <1>         0.0923
@<TRIPOS>BOND
     1    1    5 ar
     2    1    9 ar
     3    2    6 ar
     4    2    9 ar
     5    3    7 ar
     6    3   10 ar
     7    4    8 ar
     8    4   10 ar
     9    5   11 ar
    10    6   11 ar
    11    7   12 ar
    12    8   12 ar
    13    9   13 1
    14   10   16 1
    15   11   19 1
    16   12   20 1
    17   13   17 1
    18   13   18 2
    19   14   19 1
    20   15   20 1
    21   16   17 1
    22    1   21 1
    23    2   22 1
    24    3   23 1
    25    4   24 1
    26    5   25 1
    27    6   26 1
    28    7   27 1
    29    8   28 1
    30   14   29 1
    31   14   30 1
    32   14   31 1
    33   15   32 1
    34   15   33 1
    35   15   34 1
    36   16   35 1
    37   16   36 1
    38   17   37 1
    39   17   38 1
@<TRIPOS>Similarity
1.4036
@<TRIPOS>ShapeSim
0.8463
@<TRIPOS>PharmSim
0.5573
# END
# Name:		AG-690/36757049
# Created and modified by SHAFTS on Mon Jul  5 00:36:42 2010

# 

@<TRIPOS>MOLECULE
AG-690/36757049
   31    33     0
SMALL
USER_CHARGE


@<TRIPOS>ATOM
      1 C1          0.7112    6.5436    0.3960 C.2       1 <1>        -0.1115
      2 C2          5.5030    2.3212   -0.6341 C.ar      1 <1>        -0.0520
      3 C3          5.2927    0.2262    0.5508 C.ar      1 <1>        -0.0575
      4 C4          6.8897    2.1721   -0.6515 C.ar      1 <1>        -0.0453
      5 C5          6.6795    0.0771    0.5334 C.ar      1 <1>        -0.0556
      6 C6          1.0936    5.1815    0.5654 C.2       1 <1>        -0.0963
      7 C7         -0.5060    6.6643   -0.2374 C.2       1 <1>        -0.0334
      8 C8          4.7044    1.3482   -0.0329 C.ar      1 <1>         0.0182
      9 C9          7.4780    1.0501   -0.0678 C.ar      1 <1>        -0.0068
     10 C10         0.1537    4.3130    0.0553 C.2       1 <1>         0.0034
     11 C11         3.2586    1.5033   -0.0148 C.2       1 <1>         0.1160
     12 C12         1.2866    2.1380    0.0155 C.2       1 <1>         0.0853
     13 C13         1.2571    0.6606   -0.0023 C.2       1 <1>         0.2291
     14 C14         0.1775    2.8787    0.0374 C.2       1 <1>        -0.0103
     15 C15         9.3657   -0.2666    0.5305 C.3       1 <1>         0.0264
     16 N1          2.5748    2.5929    0.0062 N.2       1 <1>        -0.3485
     17 O1          0.3035   -0.0904   -0.0009 O.2       1 <1>        -0.4021
     18 O2          2.5816    0.3328   -0.0213 O.3       1 <1>        -0.2493
     19 O3          8.8311    0.9045   -0.0845 O.3       1 <1>        -0.4130
     20 S1         -1.1828    5.1398   -0.6248 S.3       1 <1>        -0.0867
     21 H1          1.2999    7.3916    0.7212 H         1 <1>         0.1072
     22 H2          5.0557    3.1996   -1.0923 H         1 <1>         0.1547
     23 H3          4.6792   -0.5377    1.0216 H         1 <1>         0.1574
     24 H4          7.5063    2.9336   -1.1211 H         1 <1>         0.1367
     25 H5          7.1320   -0.7989    0.9899 H         1 <1>         0.1205
     26 H6          2.0142    4.8640    1.0393 H         1 <1>         0.1344
     27 H7         -1.0299    7.5748   -0.4917 H         1 <1>         0.1618
     28 H8         -0.7788    2.3560    0.0711 H         1 <1>         0.2102
     29 H9         10.4553   -0.2580    0.4468 H         1 <1>         0.1237
     30 H10         8.9591   -1.1548    0.0402 H         1 <1>         0.0916
     31 H11         9.0837   -0.2742    1.5860 H         1 <1>         0.0916
@<TRIPOS>BOND
     1    1    6 1
     2    1    7 2
     3    2    4 ar
     4    2    8 ar
     5    3    5 ar
     6    3    8 ar
     7    4    9 ar
     8    5    9 ar
     9    6   10 2
    10    7   20 1
    11    8   11 1
    12    9   19 1
    13   10   14 1
    14   10   20 1
    15   11   16 2
    16   11   18 1
    17   12   13 1
    18   12   14 2
    19   12   16 1
    20   13   17 2
    21   13   18 1
    22   15   19 1
    23    1   21 1
    24    2   22 1
    25    3   23 1
    26    4   24 1
    27    5   25 1
    28    6   26 1
    29    7   27 1
    30   14   28 1
    31   15   29 1
    32   15   30 1
    33   15   31 1
@<TRIPOS>Similarity
1.4029
@<TRIPOS>ShapeSim
0.8788
@<TRIPOS>PharmSim
0.5241
# END
# Name:		AG-690/40749470
# Created and modified by SHAFTS on Mon Jul  5 00:36:42 2010

# 

@<TRIPOS>MOLECULE
AG-690/40749470
   46    48     0
SMALL
USER_CHARGE


@<TRIPOS>ATOM
      1 C1         -0.9012    1.8112    0.0164 C.1       1 <1>         0.0751
      2 C2          5.4409    1.9055   -1.0860 C.ar      1 <1>        -0.0767
      3 C3          5.3206    0.6948    1.0014 C.ar      1 <1>        -0.0631
      4 C4          0.9563    5.0936    1.0670 C.ar      1 <1>        -0.0756
      5 C5         -0.1580    4.6007   -1.0192 C.ar      1 <1>        -0.0743
      6 C6          6.8261    1.7425   -1.1008 C.ar      1 <1>        -0.0646
      7 C7          6.7059    0.5318    0.9866 C.ar      1 <1>        -0.0498
      8 C8          0.3732    6.3606    1.0791 C.ar      1 <1>        -0.0663
      9 C9         -0.7412    5.8677   -1.0071 C.ar      1 <1>        -0.0662
     10 C10         2.6838    2.8126   -0.0072 C.ar      1 <1>        -0.0198
     11 C11         0.5324    1.7376    0.0043 C.ar      1 <1>         0.1150
     12 C12         0.6908    4.2136    0.0177 C.ar      1 <1>        -0.0529
     13 C13         4.6882    1.3817   -0.0349 C.ar      1 <1>        -0.0292
     14 C14         1.2962    2.8995    0.0049 C.ar      1 <1>        -0.0075
     15 C15         7.4585    1.0558   -0.0645 C.ar      1 <1>        -0.0116
     16 C16        -0.4757    6.7477    0.0421 C.ar      1 <1>        -0.0113
     17 C17         3.2545    1.5502   -0.0195 C.ar      1 <1>        -0.0048
     18 C18         1.1995    0.5232   -0.0086 C.ar      1 <1>         0.0574
     19 C19         1.3052   -3.5338    0.4859 C.3       1 <1>        -0.0520
     20 C20         2.3005   -2.2558   -1.4420 C.3       1 <1>        -0.0503
     21 C21         9.3921    0.1838    1.0113 C.3       1 <1>         0.0250
     22 C22         1.7329   -2.1653   -0.0305 C.3       1 <1>        -0.0099
     23 N1         -2.0602    1.8707    0.0260 N.1       1 <1>        -0.3600
     24 N2          2.5455    0.3991   -0.0206 N.ar      1 <1>        -0.3590
     25 O1          8.8100    0.8964   -0.0794 O.3       1 <1>        -0.4155
     26 S1          0.3225   -1.0399   -0.0127 S.3       1 <1>        -0.1257
     27 Cl1        -1.1937    8.3118    0.0570 Cl        1 <1>        -0.1376
     28 H1          4.9622    2.4432   -1.9009 H         1 <1>         0.1389
     29 H2          4.7478    0.2806    1.8276 H         1 <1>         0.1532
     30 H3          1.6160    4.8065    1.8824 H         1 <1>         0.1352
     31 H4         -0.3741    3.9263   -1.8446 H         1 <1>         0.1415
     32 H5          7.4070    2.1526   -1.9223 H         1 <1>         0.1153
     33 H6          7.1931   -0.0042    1.7964 H         1 <1>         0.1312
     34 H7          0.5901    7.0372    1.9020 H         1 <1>         0.1379
     35 H8         -1.3998    6.1564   -1.8225 H         1 <1>         0.1383
     36 H9          3.3036    3.7052   -0.0075 H         1 <1>         0.1486
     37 H10         0.5414   -3.9664   -0.1701 H         1 <1>         0.0383
     38 H11         2.1487   -4.2329    0.5088 H         1 <1>         0.0426
     39 H12         0.8786   -3.4756    1.4937 H         1 <1>         0.0518
     40 H13         1.5521   -2.6687   -2.1276 H         1 <1>         0.0444
     41 H14         3.1750   -2.9151   -1.4787 H         1 <1>         0.0537
     42 H15         2.5940   -1.2731   -1.8284 H         1 <1>         0.0443
     43 H16        10.4749    0.1290    0.8752 H         1 <1>         0.0904
     44 H17         8.9685   -0.8226    1.0576 H         1 <1>         0.0904
     45 H18         9.1703    0.7137    1.9407 H         1 <1>         0.1228
     46 H19         2.4953   -1.7509    0.6378 H         1 <1>         0.0925
@<TRIPOS>BOND
     1    1   11 1
     2    1   23 3
     3    2    6 ar
     4    2   13 ar
     5    3    7 ar
     6    3   13 ar
     7    4    8 ar
     8    4   12 ar
     9    5    9 ar
    10    5   12 ar
    11    6   15 ar
    12    7   15 ar
    13    8   16 ar
    14    9   16 ar
    15   10   14 ar
    16   10   17 ar
    17   11   14 ar
    18   11   18 ar
    19   12   14 1
    20   13   17 1
    21   15   25 1
    22   16   27 1
    23   17   24 ar
    24   18   24 ar
    25   18   26 1
    26   19   22 1
    27   20   22 1
    28   21   25 1
    29   22   26 1
    30    2   28 1
    31    3   29 1
    32    4   30 1
    33    5   31 1
    34    6   32 1
    35    7   33 1
    36    8   34 1
    37    9   35 1
    38   10   36 1
    39   19   37 1
    40   19   38 1
    41   19   39 1
    42   20   40 1
    43   20   41 1
    44   20   42 1
    45   21   43 1
    46   21   44 1
    47   21   45 1
    48   22   46 1
@<TRIPOS>Similarity
1.4023
@<TRIPOS>ShapeSim
0.9057
@<TRIPOS>PharmSim
0.4965
# END
# Name:		AO-365/43401335
# Created and modified by SHAFTS on Mon Jul  5 00:36:42 2010

# 

@<TRIPOS>MOLECULE
AO-365/43401335
   38    41     0
SMALL
USER_CHARGE


@<TRIPOS>ATOM
      1 C1          0.9379    6.5110    0.6335 C.ar      1 <1>        -0.0931
      2 C2          1.0064    5.1178    0.6243 C.ar      1 <1>        -0.0659
      3 C3          5.2521    0.1383    0.3683 C.ar      1 <1>        -0.0542
      4 C4          5.4253    2.4066   -0.4453 C.ar      1 <1>        -0.0606
      5 C5         -0.1461    7.1599    0.0424 C.ar      1 <1>        -0.0659
      6 C6          6.6425    0.0278    0.3561 C.ar      1 <1>        -0.0410
      7 C7          6.8157    2.2961   -0.4574 C.ar      1 <1>        -0.0526
      8 C8         -1.0930    5.0225   -0.5674 C.ar      1 <1>        -0.0171
      9 C9         -0.0090    4.3735    0.0238 C.ar      1 <1>         0.0162
     10 C10         4.6435    1.3277   -0.0324 C.ar      1 <1>         0.0053
     11 C11         7.4243    1.1066   -0.0567 C.ar      1 <1>        -0.0023
     12 C12        -1.1616    6.4156   -0.5581 C.ar      1 <1>        -0.0017
     13 C13         0.0613    2.9329    0.0146 C.2       1 <1>         0.1151
     14 C14         0.8519    0.9275   -0.0035 C.2       1 <1>         0.1539
     15 C15         3.2020    1.4426   -0.0198 C.2       1 <1>         0.1231
     16 C16         9.3375   -0.2453    0.3529 C.3       1 <1>         0.0278
     17 C17        -3.2220    6.2280   -1.7309 C.3       1 <1>         0.0244
     18 N1         -0.9553    2.0864    0.0175 N.2       1 <1>        -0.2267
     19 N2         -0.4422    0.7887    0.0058 N.2       1 <1>        -0.2356
     20 N3          2.5243    2.5634   -0.0071 N.2       1 <1>        -0.2757
     21 N4          1.2187    2.2248    0.0012 N.pl3     1 <1>        -0.2229
     22 O1          8.7810    0.9990   -0.0689 O.3       1 <1>        -0.4106
     23 O2         -2.2191    7.0494   -1.1348 O.3       1 <1>        -0.4158
     24 S1          2.2341   -0.0697   -0.0203 S.3       1 <1>         0.0504
     25 H1          1.7284    7.0909    1.1009 H         1 <1>         0.1311
     26 H2          1.8579    4.6263    1.0889 H         1 <1>         0.1296
     27 H3          4.6532   -0.7090    0.6922 H         1 <1>         0.1534
     28 H4          4.9607    3.3378   -0.7592 H         1 <1>         0.1554
     29 H5         -0.1936    8.2455    0.0526 H         1 <1>         0.1198
     30 H6          7.1106   -0.9015    0.6692 H         1 <1>         0.1431
     31 H7          7.4195    3.1398   -0.7804 H         1 <1>         0.1240
     32 H8         -1.8903    4.4513   -1.0390 H         1 <1>         0.1555
     33 H9         10.4276   -0.1960    0.2949 H         1 <1>         0.0926
     34 H10         8.9638   -1.0483   -0.2873 H         1 <1>         0.0926
     35 H11         9.0382   -0.4364    1.3861 H         1 <1>         0.1253
     36 H12        -4.0073    6.8594   -2.1537 H         1 <1>         0.0899
     37 H13        -3.6438    5.5603   -0.9754 H         1 <1>         0.0896
     38 H14        -2.7676    5.6334   -2.5270 H         1 <1>         0.1233
@<TRIPOS>BOND
     1    1    2 ar
     2    1    5 ar
     3    2    9 ar
     4    3    6 ar
     5    3   10 ar
     6    4    7 ar
     7    4   10 ar
     8    5   12 ar
     9    6   11 ar
    10    7   11 ar
    11    8    9 ar
    12    8   12 ar
    13    9   13 1
    14   10   15 1
    15   11   22 1
    16   12   23 1
    17   13   18 2
    18   13   21 1
    19   14   19 2
    20   14   21 1
    21   14   24 1
    22   15   20 2
    23   15   24 1
    24   16   22 1
    25   17   23 1
    26   18   19 1
    27   20   21 1
    28    1   25 1
    29    2   26 1
    30    3   27 1
    31    4   28 1
    32    5   29 1
    33    6   30 1
    34    7   31 1
    35    8   32 1
    36   16   33 1
    37   16   34 1
    38   16   35 1
    39   17   36 1
    40   17   37 1
    41   17   38 1
@<TRIPOS>Similarity
1.4014
@<TRIPOS>ShapeSim
0.8855
@<TRIPOS>PharmSim
0.5159
# END
# Name:		AE-842/32631014
# Created and modified by SHAFTS on Mon Jul  5 00:36:42 2010

# 

@<TRIPOS>MOLECULE
AE-842/32631014
   38    40     0
SMALL
USER_CHARGE


@<TRIPOS>ATOM
      1 C1         -0.6596    6.8556    0.0446 C.ar      1 <1>        -0.1040
      2 C2         -0.7898    5.9464   -1.0051 C.ar      1 <1>        -0.0994
      3 C3          0.2390    6.6007    1.0807 C.ar      1 <1>        -0.0939
      4 C4         -0.0215    4.7823   -1.0188 C.ar      1 <1>        -0.0755
      5 C5          1.0072    5.4366    1.0670 C.ar      1 <1>        -0.0667
      6 C6          5.1586    0.5886    0.5599 C.ar      1 <1>        -0.0452
      7 C7          5.6571    2.6240   -0.6423 C.ar      1 <1>        -0.0393
      8 C8          6.5113    0.2486    0.5453 C.ar      1 <1>        -0.0597
      9 C9          7.0098    2.2841   -0.6569 C.ar      1 <1>        -0.0564
     10 C10         2.3389    1.2348   -0.0138 C.2       1 <1>         0.0247
     11 C11         0.8771    4.5273    0.0172 C.ar      1 <1>        -0.0208
     12 C12         1.1992    2.0013    0.0013 C.2       1 <1>         0.1019
     13 C13         4.7315    1.7762   -0.0340 C.ar      1 <1>         0.0006
     14 C14         7.4369    1.0963   -0.0631 C.ar      1 <1>        -0.0079
     15 C15         1.6680    3.3288    0.0034 C.2       1 <1>         0.0464
     16 C16        -0.1407    1.4954    0.0118 C.2       1 <1>         0.1832
     17 C17        -2.2153    0.1149    1.9873 C.3       1 <1>        -0.0334
     18 C18        -1.5288   -0.3363    0.7159 C.3       1 <1>         0.0262
     19 N1          3.0014    3.4048   -0.0091 N.2       1 <1>        -0.2992
     20 N2          3.3803    2.1155   -0.0192 N.pl3     1 <1>        -0.2770
     21 O1         -1.1337    2.0703   -0.4860 O.2       1 <1>        -0.4459
     22 O2         -0.2364    0.2752    0.6416 O.3       1 <1>        -0.3530
     23 Cl1         9.1061    0.6779   -0.0787 Cl        1 <1>        -0.1377
     24 H1         -1.2569    7.7626    0.0549 H         1 <1>         0.1198
     25 H2         -1.4884    6.1452   -1.8126 H         1 <1>         0.1163
     26 H3          0.3411    7.3094    1.8972 H         1 <1>         0.1184
     27 H4         -0.1345    4.0832   -1.8442 H         1 <1>         0.1296
     28 H5          1.7032    5.2525    1.8821 H         1 <1>         0.1481
     29 H6          4.4480   -0.0815    1.0378 H         1 <1>         0.1429
     30 H7          5.3377    3.5529   -1.1087 H         1 <1>         0.1546
     31 H8          6.8302   -0.6802    1.0114 H         1 <1>         0.1480
     32 H9          7.7199    2.9541   -1.1350 H         1 <1>         0.1475
     33 H10         2.4891    0.1629   -0.0208 H         1 <1>         0.2444
     34 H11        -1.6385   -0.1802    2.8682 H         1 <1>         0.0484
     35 H12        -2.3392    1.2029    1.9939 H         1 <1>         0.0484
     36 H13        -3.2179   -0.3199    2.0596 H         1 <1>         0.0590
     37 H14        -2.1108   -0.0381   -0.1612 H         1 <1>         0.1034
     38 H15        -1.4052   -1.4234    0.7112 H         1 <1>         0.1034
@<TRIPOS>BOND
     1    1    2 ar
     2    1    3 ar
     3    2    4 ar
     4    3    5 ar
     5    4   11 ar
     6    5   11 ar
     7    6    8 ar
     8    6   13 ar
     9    7    9 ar
    10    7   13 ar
    11    8   14 ar
    12    9   14 ar
    13   10   12 2
    14   10   20 1
    15   11   15 1
    16   12   15 1
    17   12   16 1
    18   13   20 1
    19   14   23 1
    20   15   19 2
    21   16   21 2
    22   16   22 1
    23   17   18 1
    24   18   22 1
    25   19   20 1
    26    1   24 1
    27    2   25 1
    28    3   26 1
    29    4   27 1
    30    5   28 1
    31    6   29 1
    32    7   30 1
    33    8   31 1
    34    9   32 1
    35   10   33 1
    36   17   34 1
    37   17   35 1
    38   17   36 1
    39   18   37 1
    40   18   38 1
@<TRIPOS>Similarity
1.4011
@<TRIPOS>ShapeSim
0.9000
@<TRIPOS>PharmSim
0.5011
# END
# Name:		AO-365/43301078
# Created and modified by SHAFTS on Mon Jul  5 00:36:42 2010

# 

@<TRIPOS>MOLECULE
AO-365/43301078
   42    45     0
SMALL
USER_CHARGE


@<TRIPOS>ATOM
      1 C1         -1.0929    5.0228   -0.5677 C.ar      1 <1>        -0.0592
      2 C2          1.0062    5.1176    0.6247 C.ar      1 <1>        -0.0641
      3 C3          5.2521    0.1386    0.3685 C.ar      1 <1>        -0.0608
      4 C4          5.4251    2.4070   -0.4448 C.ar      1 <1>        -0.0543
      5 C5         -1.1611    6.4159   -0.5585 C.ar      1 <1>        -0.0581
      6 C6          0.9381    6.5108    0.6338 C.ar      1 <1>        -0.0615
      7 C7          6.6425    0.0282    0.3564 C.ar      1 <1>        -0.0532
      8 C8          6.8156    2.2966   -0.4568 C.ar      1 <1>        -0.0415
      9 C9         -0.0093    4.3736    0.0240 C.ar      1 <1>         0.0060
     10 C10         4.6433    1.3280   -0.0322 C.ar      1 <1>         0.0046
     11 C11        -0.1455    7.1599    0.0422 C.ar      1 <1>        -0.0679
     12 C12         7.4242    1.1071   -0.0562 C.ar      1 <1>        -0.0029
     13 C13         0.0610    2.9329    0.0147 C.2       1 <1>         0.1031
     14 C14         0.8519    0.9274   -0.0035 C.2       1 <1>         0.1485
     15 C15         3.2020    1.4427   -0.0195 C.2       1 <1>         0.1205
     16 C16        -0.2599    9.3094   -1.1935 C.3       1 <1>        -0.0349
     17 C17        -0.2544    9.2932    1.3062 C.3       1 <1>        -0.0351
     18 C18         9.3375   -0.2446    0.3535 C.3       1 <1>         0.0275
     19 N1         -0.9555    2.0863    0.0175 N.2       1 <1>        -0.2352
     20 N2         -0.4423    0.7887    0.0057 N.2       1 <1>        -0.2417
     21 N3          2.5241    2.5635   -0.0069 N.2       1 <1>        -0.2770
     22 N4          1.2185    2.2248    0.0014 N.pl3     1 <1>        -0.2265
     23 N5         -0.2143    8.5685    0.0514 N.pl3     1 <1>        -0.4221
     24 O1          8.7809    0.9996   -0.0683 O.3       1 <1>        -0.4110
     25 S1          2.2342   -0.0696   -0.0203 S.3       1 <1>         0.0445
     26 H1         -1.8926    4.4568   -1.0398 H         1 <1>         0.1524
     27 H2          1.8574    4.6261    1.0900 H         1 <1>         0.1420
     28 H3          4.6531   -0.7087    0.6923 H         1 <1>         0.1548
     29 H4          4.9605    3.3382   -0.7587 H         1 <1>         0.1531
     30 H5         -2.0101    6.9118   -1.0223 H         1 <1>         0.1211
     31 H6          1.7350    7.0806    1.1047 H         1 <1>         0.1178
     32 H7          7.1107   -0.9010    0.6695 H         1 <1>         0.1234
     33 H8          7.4193    3.1404   -0.7796 H         1 <1>         0.1425
     34 H9         -0.3108   10.3823   -0.9906 H         1 <1>         0.0808
     35 H10        -1.1395    9.0189   -1.7743 H         1 <1>         0.0928
     36 H11         0.6351    9.1057   -1.7875 H         1 <1>         0.0947
     37 H12        -0.3062   10.3686    1.1174 H         1 <1>         0.0802
     38 H13         0.6431    9.0818    1.8936 H         1 <1>         0.0931
     39 H14        -1.1317    8.9952    1.8868 H         1 <1>         0.0936
     40 H15        10.4276   -0.1953    0.2955 H         1 <1>         0.0923
     41 H16         8.9639   -1.0476   -0.2868 H         1 <1>         0.0924
     42 H17         9.0382   -0.4360    1.3867 H         1 <1>         0.1250
@<TRIPOS>BOND
     1    1    5 ar
     2    1    9 ar
     3    2    6 ar
     4    2    9 ar
     5    3    7 ar
     6    3   10 ar
     7    4    8 ar
     8    4   10 ar
     9    5   11 ar
    10    6   11 ar
    11    7   12 ar
    12    8   12 ar
    13    9   13 1
    14   10   15 1
    15   11   23 1
    16   12   24 1
    17   13   19 2
    18   13   22 1
    19   14   20 2
    20   14   22 1
    21   14   25 1
    22   15   21 2
    23   15   25 1
    24   16   23 1
    25   17   23 1
    26   18   24 1
    27   19   20 1
    28   21   22 1
    29    1   26 1
    30    2   27 1
    31    3   28 1
    32    4   29 1
    33    5   30 1
    34    6   31 1
    35    7   32 1
    36    8   33 1
    37   16   34 1
    38   16   35 1
    39   16   36 1
    40   17   37 1
    41   17   38 1
    42   17   39 1
    43   18   40 1
    44   18   41 1
    45   18   42 1
@<TRIPOS>Similarity
1.4010
@<TRIPOS>ShapeSim
0.8628
@<TRIPOS>PharmSim
0.5382
# END
# Name:		AP-501/41329110
# Created and modified by SHAFTS on Mon Jul  5 00:36:42 2010

# 

@<TRIPOS>MOLECULE
AP-501/41329110
   38    41     0
SMALL
USER_CHARGE


@<TRIPOS>ATOM
      1 C1         -1.0929    5.0228   -0.5676 C.ar      1 <1>        -0.0512
      2 C2          1.0062    5.1176    0.6247 C.ar      1 <1>        -0.0656
      3 C3          5.2520    0.1386    0.3685 C.ar      1 <1>        -0.0609
      4 C4          5.4252    2.4070   -0.4448 C.ar      1 <1>        -0.0541
      5 C5         -1.1611    6.4159   -0.5586 C.ar      1 <1>        -0.0445
      6 C6          0.9381    6.5109    0.6337 C.ar      1 <1>        -0.0608
      7 C7          6.6424    0.0281    0.3564 C.ar      1 <1>        -0.0529
      8 C8          6.8155    2.2965   -0.4569 C.ar      1 <1>        -0.0410
      9 C9         -0.0093    4.3736    0.0241 C.ar      1 <1>         0.0088
     10 C10         4.6434    1.3279   -0.0322 C.ar      1 <1>         0.0050
     11 C11        -0.1456    7.1599    0.0421 C.ar      1 <1>        -0.0086
     12 C12         7.4243    1.1071   -0.0563 C.ar      1 <1>        -0.0024
     13 C13         0.0611    2.9329    0.0148 C.2       1 <1>         0.1062
     14 C14         0.8519    0.9275   -0.0035 C.2       1 <1>         0.1514
     15 C15         3.2020    1.4427   -0.0195 C.2       1 <1>         0.1217
     16 C16        -1.3477    9.1180   -0.5718 C.3       1 <1>         0.0254
     17 C17         9.3376   -0.2447    0.3534 C.3       1 <1>         0.0277
     18 N1         -0.9554    2.0863    0.0175 N.2       1 <1>        -0.2320
     19 N2         -0.4423    0.7887    0.0057 N.2       1 <1>        -0.2386
     20 N3          2.5241    2.5635   -0.0069 N.2       1 <1>        -0.2774
     21 N4          1.2185    2.2249    0.0014 N.pl3     1 <1>        -0.2260
     22 O1         -0.2122    8.5194    0.0509 O.3       1 <1>        -0.4144
     23 O2          8.7809    0.9995   -0.0683 O.3       1 <1>        -0.4106
     24 S1          2.2342   -0.0696   -0.0203 S.3       1 <1>         0.0481
     25 H1         -1.8925    4.4569   -1.0398 H         1 <1>         0.1591
     26 H2          1.8574    4.6264    1.0901 H         1 <1>         0.1430
     27 H3          4.6532   -0.7088    0.6923 H         1 <1>         0.1546
     28 H4          4.9605    3.3382   -0.7587 H         1 <1>         0.1534
     29 H5         -2.0078    6.9159   -1.0210 H         1 <1>         0.1380
     30 H6          1.7321    7.0851    1.1032 H         1 <1>         0.1174
     31 H7          7.1106   -0.9011    0.6695 H         1 <1>         0.1237
     32 H8          7.4193    3.1403   -0.7796 H         1 <1>         0.1431
     33 H9         -1.2760   10.2055   -0.4939 H         1 <1>         0.0903
     34 H10        -2.2600    8.7664   -0.0831 H         1 <1>         0.0901
     35 H11        -1.3677    8.8309   -1.6258 H         1 <1>         0.1234
     36 H12        10.4277   -0.1954    0.2954 H         1 <1>         0.0925
     37 H13         8.9639   -1.0478   -0.2869 H         1 <1>         0.0925
     38 H14         9.0381   -0.4360    1.3866 H         1 <1>         0.1254
@<TRIPOS>BOND
     1    1    5 ar
     2    1    9 ar
     3    2    6 ar
     4    2    9 ar
     5    3    7 ar
     6    3   10 ar
     7    4    8 ar
     8    4   10 ar
     9    5   11 ar
    10    6   11 ar
    11    7   12 ar
    12    8   12 ar
    13    9   13 1
    14   10   15 1
    15   11   22 1
    16   12   23 1
    17   13   18 2
    18   13   21 1
    19   14   19 2
    20   14   21 1
    21   14   24 1
    22   15   20 2
    23   15   24 1
    24   16   22 1
    25   17   23 1
    26   18   19 1
    27   20   21 1
    28    1   25 1
    29    2   26 1
    30    3   27 1
    31    4   28 1
    32    5   29 1
    33    6   30 1
    34    7   31 1
    35    8   32 1
    36   16   33 1
    37   16   34 1
    38   16   35 1
    39   17   36 1
    40   17   37 1
    41   17   38 1
@<TRIPOS>Similarity
1.4007
@<TRIPOS>ShapeSim
0.8859
@<TRIPOS>PharmSim
0.5148
# END
# Name:		AK-777/36976001
# Created and modified by SHAFTS on Mon Jul  5 00:36:42 2010

# 

@<TRIPOS>MOLECULE
AK-777/36976001
   37    39     0
SMALL
USER_CHARGE


@<TRIPOS>ATOM
      1 C1         -0.9336    1.8199    0.1130 C.1       1 <1>         0.0768
      2 C2          6.8260    0.7053    0.1224 C.2       1 <1>        -0.1026
      3 C3          0.8919    5.1551    1.0440 C.ar      1 <1>        -0.0746
      4 C4         -0.2833    4.6051   -0.9940 C.ar      1 <1>        -0.0855
      5 C5          0.2836    6.4102    1.0561 C.ar      1 <1>        -0.0515
      6 C6         -0.8917    5.8602   -0.9818 C.ar      1 <1>        -0.0644
      7 C7          5.4435    0.4878    0.3898 C.2       1 <1>        -0.0837
      8 C8          2.6273    2.8914   -0.0524 C.ar      1 <1>        -0.0130
      9 C9          7.0395    1.8677   -0.5853 C.2       1 <1>        -0.0429
     10 C10         0.5000    1.7743    0.0518 C.ar      1 <1>         0.1166
     11 C11         0.6087    4.2526    0.0189 C.ar      1 <1>        -0.0567
     12 C12         1.2394    2.9510    0.0063 C.ar      1 <1>        -0.0080
     13 C13        -0.6083    6.7628    0.0433 C.ar      1 <1>        -0.0105
     14 C14         3.2229    1.6404   -0.0630 C.ar      1 <1>         0.0081
     15 C15         4.6529    1.4924   -0.1237 C.2       1 <1>         0.0142
     16 C16         1.1907    0.5734    0.0362 C.ar      1 <1>         0.0578
     17 C17        -2.1036    8.2825   -1.0103 C.3       1 <1>         0.0251
     18 C18        -0.5100   -0.8251    1.6687 C.3       1 <1>         0.0103
     19 N1         -2.0925    1.8567    0.1624 N.1       1 <1>        -0.3598
     20 N2          2.5380    0.4757   -0.0201 N.ar      1 <1>        -0.3535
     21 O1         -1.2023    7.9871    0.0556 O.3       1 <1>        -0.4155
     22 S1          5.5770    2.6912   -0.9245 S.3       1 <1>        -0.1154
     23 S2          0.3460   -1.0066    0.0905 S.3       1 <1>        -0.1263
     24 H1          7.6237    0.0436    0.4338 H         1 <1>         0.1162
     25 H2          1.5848    4.8949    1.8406 H         1 <1>         0.1443
     26 H3         -0.5145    3.9127   -1.7998 H         1 <1>         0.1325
     27 H4          0.5081    7.1090    1.8574 H         1 <1>         0.1344
     28 H5         -1.5858    6.1293   -1.7734 H         1 <1>         0.1168
     29 H6          5.0565   -0.3651    0.9338 H         1 <1>         0.1346
     30 H7          3.2288    3.7957   -0.0887 H         1 <1>         0.1508
     31 H8          7.9844    2.2729   -0.9190 H         1 <1>         0.1725
     32 H9         -2.5065    9.2898   -0.8792 H         1 <1>         0.0903
     33 H10        -2.9159    7.5515   -1.0150 H         1 <1>         0.0902
     34 H11        -1.5627    8.2294   -1.9582 H         1 <1>         0.1233
     35 H12        -1.0972   -1.7226    1.8783 H         1 <1>         0.0800
     36 H13        -1.1792    0.0380    1.6308 H         1 <1>         0.0801
     37 H14         0.2175   -0.6785    2.4708 H         1 <1>         0.0891
@<TRIPOS>BOND
     1    1   10 1
     2    1   19 3
     3    2    7 1
     4    2    9 2
     5    3    5 ar
     6    3   11 ar
     7    4    6 ar
     8    4   11 ar
     9    5   13 ar
    10    6   13 ar
    11    7   15 2
    12    8   12 ar
    13    8   14 ar
    14    9   22 1
    15   10   12 ar
    16   10   16 ar
    17   11   12 1
    18   13   21 1
    19   14   15 1
    20   14   20 ar
    21   15   22 1
    22   16   20 ar
    23   16   23 1
    24   17   21 1
    25   18   23 1
    26    2   24 1
    27    3   25 1
    28    4   26 1
    29    5   27 1
    30    6   28 1
    31    7   29 1
    32    8   30 1
    33    9   31 1
    34   17   32 1
    35   17   33 1
    36   17   34 1
    37   18   35 1
    38   18   36 1
    39   18   37 1
@<TRIPOS>Similarity
1.4003
@<TRIPOS>ShapeSim
0.9102
@<TRIPOS>PharmSim
0.4902
# END
# Name:		AG-690/40749461
# Created and modified by SHAFTS on Mon Jul  5 00:36:42 2010

# 

@<TRIPOS>MOLECULE
AG-690/40749461
   40    42     0
SMALL
USER_CHARGE


@<TRIPOS>ATOM
      1 C1         -0.9010    1.8118    0.0163 C.1       1 <1>         0.0752
      2 C2          5.4411    1.9052   -1.0860 C.ar      1 <1>        -0.0630
      3 C3          5.3207    0.6947    1.0014 C.ar      1 <1>        -0.0767
      4 C4          0.3894    4.8546   -1.1842 C.ar      1 <1>        -0.0743
      5 C5          0.4092    4.8402    1.2317 C.ar      1 <1>        -0.0755
      6 C6          6.8263    1.7421   -1.1008 C.ar      1 <1>        -0.0496
      7 C7          6.7059    0.5315    0.9866 C.ar      1 <1>        -0.0645
      8 C8         -0.1946    6.1213   -1.1718 C.ar      1 <1>        -0.0661
      9 C9         -0.1747    6.1068    1.2441 C.ar      1 <1>        -0.0662
     10 C10         2.6842    2.8128   -0.0073 C.ar      1 <1>        -0.0194
     11 C11         0.5326    1.7380    0.0043 C.ar      1 <1>         0.1144
     12 C12         0.6913    4.2140    0.0176 C.ar      1 <1>        -0.0529
     13 C13         4.6883    1.3816   -0.0349 C.ar      1 <1>        -0.0290
     14 C14         1.2965    2.8998    0.0048 C.ar      1 <1>        -0.0075
     15 C15         7.4587    1.0553   -0.0645 C.ar      1 <1>        -0.0115
     16 C16        -0.4766    6.7474    0.0422 C.ar      1 <1>        -0.0113
     17 C17         3.2547    1.5503   -0.0195 C.ar      1 <1>        -0.0052
     18 C18         1.1995    0.5236   -0.0086 C.ar      1 <1>         0.0546
     19 C19         9.3921    0.1832    1.0114 C.3       1 <1>         0.0251
     20 C20         0.9675   -1.7396    1.5203 C.3       1 <1>         0.0100
     21 N1         -2.0599    1.8714    0.0259 N.1       1 <1>        -0.3596
     22 N2          2.5456    0.3992   -0.0206 N.ar      1 <1>        -0.3610
     23 O1          8.8101    0.8958   -0.0794 O.3       1 <1>        -0.4155
     24 S1          0.3224   -1.0394   -0.0127 S.3       1 <1>        -0.1277
     25 Cl1        -1.1985    8.3096    0.0566 Cl        1 <1>        -0.1376
     26 H1          4.9625    2.4430   -1.9010 H         1 <1>         0.1530
     27 H2          4.7478    0.2805    1.8276 H         1 <1>         0.1392
     28 H3          0.6031    4.3793   -2.1386 H         1 <1>         0.1416
     29 H4          0.6378    4.3534    2.1770 H         1 <1>         0.1354
     30 H5          7.4073    2.1522   -1.9223 H         1 <1>         0.1315
     31 H6          7.1931   -0.0046    1.7964 H         1 <1>         0.1155
     32 H7         -0.4263    6.6083   -2.1158 H         1 <1>         0.1384
     33 H8         -0.3901    6.5825    2.1976 H         1 <1>         0.1380
     34 H9          3.3040    3.7053   -0.0076 H         1 <1>         0.1492
     35 H10        10.4750    0.1283    0.8752 H         1 <1>         0.0905
     36 H11         8.9684   -0.8232    1.0577 H         1 <1>         0.1228
     37 H12         9.1704    0.7131    1.9407 H         1 <1>         0.0905
     38 H13         0.5307   -2.7266    1.6909 H         1 <1>         0.0801
     39 H14         0.7153   -1.0882    2.3607 H         1 <1>         0.0801
     40 H15         2.0540   -1.8358    1.4560 H         1 <1>         0.0890
@<TRIPOS>BOND
     1    1   11 1
     2    1   21 3
     3    2    6 ar
     4    2   13 ar
     5    3    7 ar
     6    3   13 ar
     7    4    8 ar
     8    4   12 ar
     9    5    9 ar
    10    5   12 ar
    11    6   15 ar
    12    7   15 ar
    13    8   16 ar
    14    9   16 ar
    15   10   14 ar
    16   10   17 ar
    17   11   14 ar
    18   11   18 ar
    19   12   14 1
    20   13   17 1
    21   15   23 1
    22   16   25 1
    23   17   22 ar
    24   18   22 ar
    25   18   24 1
    26   19   23 1
    27   20   24 1
    28    2   26 1
    29    3   27 1
    30    4   28 1
    31    5   29 1
    32    6   30 1
    33    7   31 1
    34    8   32 1
    35    9   33 1
    36   10   34 1
    37   19   35 1
    38   19   36 1
    39   19   37 1
    40   20   38 1
    41   20   39 1
    42   20   40 1
@<TRIPOS>Similarity
1.3991
@<TRIPOS>ShapeSim
0.9119
@<TRIPOS>PharmSim
0.4872
# END
# Name:		AG-205/33140043
# Created and modified by SHAFTS on Mon Jul  5 00:36:42 2010

# 

@<TRIPOS>MOLECULE
AG-205/33140043
   49    53     0
SMALL
USER_CHARGE


@<TRIPOS>ATOM
      1 C1          7.8076    1.4360   -0.0641 C.ar      1 <1>        -0.1029
      2 C2          7.1335    2.0825   -1.1001 C.ar      1 <1>        -0.0991
      3 C3          7.0888    0.8629    0.9850 C.ar      1 <1>        -0.0960
      4 C4          5.7406    2.1560   -1.0869 C.ar      1 <1>        -0.0785
      5 C5          5.6959    0.9365    0.9982 C.ar      1 <1>        -0.0731
      6 C6          1.0479    5.0774    1.0651 C.ar      1 <1>        -0.0778
      7 C7         -0.0250    4.5002   -1.0214 C.ar      1 <1>        -0.0864
      8 C8          0.3668    6.2945    1.0785 C.ar      1 <1>        -0.0531
      9 C9         -0.7060    5.7174   -1.0078 C.ar      1 <1>        -0.0652
     10 C10         2.9479    2.8909   -0.0114 C.ar      1 <1>        -0.0240
     11 C11         0.8525    1.6988   -0.0005 C.ar      1 <1>         0.0113
     12 C12         0.8519    4.1802    0.0151 C.ar      1 <1>        -0.0649
     13 C13         5.0218    1.5830   -0.0378 C.ar      1 <1>        -0.0285
     14 C14         1.5570    2.9199    0.0010 C.ar      1 <1>        -0.0439
     15 C15        -0.5456    1.3898    0.0096 C.2       1 <1>        -0.0472
     16 C16        -0.5101    6.6145    0.0421 C.ar      1 <1>        -0.0117
     17 C17         3.5783    1.6592   -0.0246 C.ar      1 <1>         0.0036
     18 C18        -0.7878    0.0338    0.0032 C.2       1 <1>         0.0761
     19 C19         1.6148    0.5354   -0.0144 C.ar      1 <1>         0.0558
     20 C20        -2.0333   -0.6668    0.0096 C.2       1 <1>         0.0672
     21 C21        -4.4062    0.3817   -0.1367 C.3       1 <1>        -0.0527
     22 C22        -4.5048   -0.7842    0.8029 C.3       1 <1>        -0.0530
     23 C23        -3.2192   -0.0183    0.6896 C.3       1 <1>         0.0093
     24 C24        -2.0563    8.0655   -1.0350 C.3       1 <1>         0.0253
     25 N1          2.9621    0.4578   -0.0268 N.ar      1 <1>        -0.3501
     26 N2         -1.5422    2.3101    0.0238 N.pl3     1 <1>        -0.3984
     27 O1         -2.2454   -1.7871   -0.4965 O.2       1 <1>        -0.4769
     28 O2         -1.1750    7.8020    0.0558 O.3       1 <1>        -0.4154
     29 S1          0.6591   -0.8770   -0.0150 S.3       1 <1>        -0.0489
     30 H1          8.8920    1.3774   -0.0754 H         1 <1>         0.1220
     31 H2          7.6929    2.5272   -1.9180 H         1 <1>         0.1197
     32 H3          7.6129    0.3582    1.7914 H         1 <1>         0.1201
     33 H4          5.2298    2.6632   -1.9021 H         1 <1>         0.1292
     34 H5          5.1491    0.4846    1.8223 H         1 <1>         0.1409
     35 H6          1.7280    4.8422    1.8802 H         1 <1>         0.1420
     36 H7         -0.1884    3.8114   -1.8468 H         1 <1>         0.1373
     37 H8          0.5233    6.9893    1.8993 H         1 <1>         0.1333
     38 H9         -1.3881    5.9613   -1.8178 H         1 <1>         0.1159
     39 H10         3.5227    3.8134   -0.0107 H         1 <1>         0.1454
     40 H11        -4.3783    0.1711   -1.1989 H         1 <1>         0.0673
     41 H12        -4.9411    1.2863    0.1260 H         1 <1>         0.0663
     42 H13        -5.1076   -0.6615    1.6944 H         1 <1>         0.0672
     43 H14        -4.5398   -1.7776    0.3723 H         1 <1>         0.0652
     44 H15        -2.9636    0.6310    1.5201 H         1 <1>         0.0822
     45 H16        -2.5216    9.0449   -0.8999 H         1 <1>         0.1236
     46 H17        -2.8237    7.2887   -1.0803 H         1 <1>         0.0905
     47 H18        -1.4822    8.0624   -1.9646 H         1 <1>         0.0906
     48 H19        -1.3484    3.3176    0.0761 H         1 <1>         0.2666
     49 H20        -2.5309    2.0368    0.0782 H         1 <1>         0.2735
@<TRIPOS>BOND
     1    1    2 ar
     2    1    3 ar
     3    2    4 ar
     4    3    5 ar
     5    4   13 ar
     6    5   13 ar
     7    6    8 ar
     8    6   12 ar
     9    7    9 ar
    10    7   12 ar
    11    8   16 ar
    12    9   16 ar
    13   10   14 ar
    14   10   17 ar
    15   11   14 ar
    16   11   15 1
    17   11   19 ar
    18   12   14 1
    19   13   17 1
    20   15   18 2
    21   15   26 1
    22   16   28 1
    23   17   25 ar
    24   18   20 1
    25   18   29 1
    26   19   25 ar
    27   19   29 1
    28   20   23 1
    29   20   27 2
    30   21   22 1
    31   21   23 1
    32   22   23 1
    33   24   28 1
    34    1   30 1
    35    2   31 1
    36    3   32 1
    37    4   33 1
    38    5   34 1
    39    6   35 1
    40    7   36 1
    41    8   37 1
    42    9   38 1
    43   10   39 1
    44   21   40 1
    45   21   41 1
    46   22   42 1
    47   22   43 1
    48   23   44 1
    49   24   45 1
    50   24   46 1
    51   24   47 1
    52   26   48 1
    53   26   49 1
@<TRIPOS>Similarity
1.3973
@<TRIPOS>ShapeSim
0.8868
@<TRIPOS>PharmSim
0.5106
# END
# Name:		AI-346/11356024
# Created and modified by SHAFTS on Mon Jul  5 00:36:42 2010

# 

@<TRIPOS>MOLECULE
AI-346/11356024
   47    50     0
SMALL
USER_CHARGE


@<TRIPOS>ATOM
      1 C1         -0.5223    6.8899    0.4105 C.ar      1 <1>        -0.1065
      2 C2         -1.1519    6.0048   -0.4646 C.ar      1 <1>        -0.1043
      3 C3          0.7479    6.5954    0.9061 C.ar      1 <1>        -0.1036
      4 C4          5.2317    0.7854    0.8719 C.ar      1 <1>        -0.0695
      5 C5         -0.5115    4.8253   -0.8440 C.ar      1 <1>        -0.0953
      6 C6          1.3884    5.4158    0.5266 C.ar      1 <1>        -0.0935
      7 C7          6.5757    0.4161    0.8542 C.ar      1 <1>        -0.0611
      8 C8          6.9871    1.9593   -0.9641 C.ar      1 <1>        -0.0478
      9 C9          4.7736    1.7491   -0.0290 C.ar      1 <1>        -0.0249
     10 C10         0.7587    4.5307   -0.3485 C.ar      1 <1>        -0.0760
     11 C11         5.6380    2.3356   -0.9706 C.ar      1 <1>        -0.0730
     12 C12         7.4519    1.0034   -0.0585 C.ar      1 <1>        -0.0101
     13 C13         3.3611    2.1500   -0.0362 C.2       1 <1>         0.0136
     14 C14         0.0033    1.5801    0.4827 C.2       1 <1>         0.1234
     15 C15         5.1613    3.3797   -1.9562 C.3       1 <1>        -0.0271
     16 C16         3.6380    3.3841   -2.1360 C.3       1 <1>        -0.0333
     17 C17         1.4544    3.2506   -0.7597 C.3       1 <1>         0.0359
     18 C18         2.9735    3.4030   -0.7693 C.3       1 <1>         0.0276
     19 C19         0.1448   -0.8755    0.7166 C.3       1 <1>        -0.0390
     20 C20         9.1737   -0.3396    0.8835 C.3       1 <1>         0.0249
     21 C21         0.0375    0.4319    1.4618 C.3       1 <1>         0.0561
     22 N1          2.3945    1.4971    0.5259 N.2       1 <1>        -0.3105
     23 N2          1.2344    2.1283    0.1677 N.am      1 <1>        -0.2650
     24 O1         -1.0676    1.9723    0.0175 O.2       1 <1>        -0.4638
     25 O2          8.7648    0.6426   -0.0668 O.3       1 <1>        -0.4154
     26 H1         -1.0206    7.8090    0.7048 H         1 <1>         0.1158
     27 H2         -2.1405    6.2345   -0.8515 H         1 <1>         0.1152
     28 H3          1.2388    7.2848    1.5865 H         1 <1>         0.1176
     29 H4          4.5649    0.3221    1.5934 H         1 <1>         0.1467
     30 H5         -1.0098    4.1414   -1.5261 H         1 <1>         0.1125
     31 H6          2.3779    5.1947    0.9179 H         1 <1>         0.1207
     32 H7          6.9367   -0.3300    1.5569 H         1 <1>         0.1164
     33 H8          7.6801    2.4104   -1.6708 H         1 <1>         0.1334
     34 H9          5.4893    4.3633   -1.5975 H         1 <1>         0.0789
     35 H10         5.6285    3.2086   -2.9333 H         1 <1>         0.0784
     36 H11         3.3334    4.2548   -2.7269 H         1 <1>         0.0580
     37 H12         3.3369    2.4883   -2.6952 H         1 <1>         0.0660
     38 H13         1.0530    2.9496   -1.7507 H         1 <1>         0.1402
     39 H14         3.3100    4.2659   -0.1795 H         1 <1>         0.1095
     40 H15        -0.7243   -1.0035    0.0640 H         1 <1>         0.0430
     41 H16         0.1853   -1.7251    1.4067 H         1 <1>         0.0405
     42 H17         1.0470   -0.9089    0.0967 H         1 <1>         0.0408
     43 H18        10.2427   -0.5353    0.7694 H         1 <1>         0.1226
     44 H19         8.6052   -1.2596    0.7256 H         1 <1>         0.0904
     45 H20         8.9802    0.0377    1.8905 H         1 <1>         0.0904
     46 H21         0.8911    0.5848    2.1198 H         1 <1>         0.1012
     47 H22        -0.8796    0.4783    2.0466 H         1 <1>         0.0997
@<TRIPOS>BOND
     1    1    2 ar
     2    1    3 ar
     3    2    5 ar
     4    3    6 ar
     5    4    7 ar
     6    4    9 ar
     7    5   10 ar
     8    6   10 ar
     9    7   12 ar
    10    8   11 ar
    11    8   12 ar
    12    9   11 ar
    13    9   13 1
    14   10   17 1
    15   11   15 1
    16   12   25 1
    17   13   18 1
    18   13   22 2
    19   14   21 1
    20   14   23 am
    21   14   24 2
    22   15   16 1
    23   16   18 1
    24   17   18 1
    25   17   23 1
    26   19   21 1
    27   20   25 1
    28   22   23 1
    29    1   26 1
    30    2   27 1
    31    3   28 1
    32    4   29 1
    33    5   30 1
    34    6   31 1
    35    7   32 1
    36    8   33 1
    37   15   34 1
    38   15   35 1
    39   16   36 1
    40   16   37 1
    41   17   38 1
    42   18   39 1
    43   19   40 1
    44   19   41 1
    45   19   42 1
    46   20   43 1
    47   20   44 1
    48   20   45 1
    49   21   46 1
    50   21   47 1
@<TRIPOS>Similarity
1.3971
@<TRIPOS>ShapeSim
0.8744
@<TRIPOS>PharmSim
0.5227
# END
# Name:		AG-690/12404942
# Created and modified by SHAFTS on Mon Jul  5 00:36:42 2010

# 

@<TRIPOS>MOLECULE
AG-690/12404942
   38    41     0
SMALL
USER_CHARGE


@<TRIPOS>ATOM
      1 C1          5.5368    2.2369   -0.6903 C.ar      1 <1>        -0.0702
      2 C2          5.2800    0.2113    0.6013 C.ar      1 <1>        -0.0765
      3 C3          0.8288    5.4614    1.1213 C.ar      1 <1>        -0.0846
      4 C4         -0.2444    4.4055   -0.7682 C.ar      1 <1>        -0.0807
      5 C5          6.9196    2.0543   -0.7019 C.ar      1 <1>        -0.0911
      6 C6          6.6629    0.0286    0.5897 C.ar      1 <1>        -0.0948
      7 C7          0.1660    6.6539    0.8313 C.ar      1 <1>        -0.0776
      8 C8         -0.9073    5.5980   -1.0581 C.ar      1 <1>        -0.0756
      9 C9         -0.9837    0.5247    0.0461 C.2       1 <1>         0.0575
     10 C10         4.7170    1.3154   -0.0387 C.ar      1 <1>        -0.0255
     11 C11         0.6236    4.3372    0.3215 C.ar      1 <1>        -0.0659
     12 C12         7.4826    0.9501   -0.0619 C.ar      1 <1>        -0.1116
     13 C13        -0.7021    6.7222   -0.2583 C.ar      1 <1>        -0.0370
     14 C14         1.1231    0.6446    0.0005 C.2       1 <1>         0.1025
     15 C15         3.2386    1.5093   -0.0261 C.2       1 <1>         0.0145
     16 C16         2.6976    2.9387   -0.0748 C.3       1 <1>         0.0527
     17 C17         1.3431    3.0429    0.6362 C.3       1 <1>         0.0499
     18 C18         8.9612    0.7548   -0.0755 C.3       1 <1>        -0.0392
     19 N1          0.1397   -0.2165   -0.1890 N.2       1 <1>        -0.3135
     20 N2         -0.7769    1.7994    0.3774 N.2       1 <1>        -0.3075
     21 N3          2.4680    0.4592   -0.0195 N.2       1 <1>        -0.2973
     22 N4          0.5602    1.8603    0.3017 N.pl3     1 <1>        -0.2691
     23 Br1        -1.5993    8.3385   -0.6508 Br        1 <1>        -0.1050
     24 H1          5.1081    3.1005   -1.1921 H         1 <1>         0.1477
     25 H2          4.6511   -0.5131    1.1123 H         1 <1>         0.1346
     26 H3          1.5032    5.4174    1.9725 H         1 <1>         0.1269
     27 H4         -0.4096    3.5348   -1.3974 H         1 <1>         0.1379
     28 H5          7.5507    2.7769   -1.2122 H         1 <1>         0.1231
     29 H6          7.0931   -0.8348    1.0905 H         1 <1>         0.1226
     30 H7          0.3377    7.5211    1.4641 H         1 <1>         0.1375
     31 H8         -1.5804    5.6345   -1.9106 H         1 <1>         0.1392
     32 H9         -1.9828    0.1212   -0.0260 H         1 <1>         0.2925
     33 H10         3.4268    3.5503    0.4631 H         1 <1>         0.1144
     34 H11         2.6486    3.2957   -1.1029 H         1 <1>         0.1212
     35 H12         1.5202    3.0126    1.7472 H         1 <1>         0.1743
     36 H13         9.4197    1.2490    0.7897 H         1 <1>         0.0609
     37 H14         9.2224   -0.3110   -0.0463 H         1 <1>         0.0566
     38 H15         9.4090    1.1666   -0.9894 H         1 <1>         0.0563
@<TRIPOS>BOND
     1    1    5 ar
     2    1   10 ar
     3    2    6 ar
     4    2   10 ar
     5    3    7 ar
     6    3   11 ar
     7    4    8 ar
     8    4   11 ar
     9    5   12 ar
    10    6   12 ar
    11    7   13 ar
    12    8   13 ar
    13    9   19 1
    14    9   20 2
    15   10   15 1
    16   11   17 1
    17   12   18 1
    18   13   23 1
    19   14   19 2
    20   14   21 1
    21   14   22 1
    22   15   16 1
    23   15   21 2
    24   16   17 1
    25   17   22 1
    26   20   22 1
    27    1   24 1
    28    2   25 1
    29    3   26 1
    30    4   27 1
    31    5   28 1
    32    6   29 1
    33    7   30 1
    34    8   31 1
    35    9   32 1
    36   16   33 1
    37   16   34 1
    38   17   35 1
    39   18   36 1
    40   18   37 1
    41   18   38 1
@<TRIPOS>Similarity
1.3968
@<TRIPOS>ShapeSim
0.9350
@<TRIPOS>PharmSim
0.4618
# END
# Name:		AN-329/05740035
# Created and modified by SHAFTS on Mon Jul  5 00:36:42 2010

# 

@<TRIPOS>MOLECULE
AN-329/05740035
   44    47     0
SMALL
USER_CHARGE


@<TRIPOS>ATOM
      1 C1          7.8075    1.4361   -0.0641 C.ar      1 <1>        -0.1031
      2 C2          7.1334    2.0824   -1.1002 C.ar      1 <1>        -0.0992
      3 C3          7.0888    0.8632    0.9851 C.ar      1 <1>        -0.0962
      4 C4          5.7405    2.1560   -1.0870 C.ar      1 <1>        -0.0787
      5 C5          5.6959    0.9366    0.9983 C.ar      1 <1>        -0.0734
      6 C6          0.5006    4.7963   -1.1862 C.ar      1 <1>        -0.0776
      7 C7          0.5224    4.7813    1.2297 C.ar      1 <1>        -0.0866
      8 C8         -0.1802    6.0135   -1.1725 C.ar      1 <1>        -0.0530
      9 C9         -0.1585    5.9987    1.2434 C.ar      1 <1>        -0.0654
     10 C10         2.9478    2.8909   -0.0115 C.ar      1 <1>        -0.0242
     11 C11         0.8524    1.6987   -0.0004 C.ar      1 <1>         0.0137
     12 C12         0.8518    4.1801    0.0150 C.ar      1 <1>        -0.0649
     13 C13         5.0217    1.5831   -0.0378 C.ar      1 <1>        -0.0292
     14 C14         1.5569    2.9198    0.0009 C.ar      1 <1>        -0.0426
     15 C15        -0.5456    1.3897    0.0097 C.2       1 <1>        -0.0379
     16 C16        -0.5098    6.6148    0.0423 C.ar      1 <1>        -0.0118
     17 C17         3.5781    1.6593   -0.0246 C.ar      1 <1>         0.0032
     18 C18        -0.7879    0.0337    0.0035 C.2       1 <1>         0.0999
     19 C19         1.6147    0.5353   -0.0143 C.ar      1 <1>         0.0546
     20 C20        -2.0334   -0.6669    0.0099 C.2       1 <1>         0.0901
     21 C21        -1.5013    8.3775   -1.2088 C.3       1 <1>         0.0252
     22 N1          2.9620    0.4578   -0.0267 N.ar      1 <1>        -0.3504
     23 N2         -1.5422    2.3100    0.0238 N.pl3     1 <1>        -0.3971
     24 N3         -2.0160   -2.0706    0.0011 N.am      1 <1>        -0.3425
     25 O1         -3.1407   -0.0722    0.0065 O.2       1 <1>        -0.4917
     26 O2         -1.1735    7.8028    0.0553 O.3       1 <1>        -0.4156
     27 S1          0.6591   -0.8770   -0.0147 S.3       1 <1>        -0.0476
     28 H1          8.8919    1.3775   -0.0755 H         1 <1>         0.1216
     29 H2          7.6928    2.5272   -1.9179 H         1 <1>         0.1197
     30 H3          7.6129    0.3585    1.7914 H         1 <1>         0.1199
     31 H4          5.2296    2.6631   -1.9022 H         1 <1>         0.1291
     32 H5          5.1490    0.4848    1.8225 H         1 <1>         0.1406
     33 H6          0.7505    4.3401   -2.1411 H         1 <1>         0.1420
     34 H7          0.7893    4.3137    2.1744 H         1 <1>         0.1369
     35 H8         -0.4510    6.4889   -2.1114 H         1 <1>         0.1334
     36 H9         -0.4124    6.4625    2.1926 H         1 <1>         0.1162
     37 H10         3.5226    3.8134   -0.0109 H         1 <1>         0.1460
     38 H11        -2.0284    9.3224   -1.0547 H         1 <1>         0.0904
     39 H12        -2.1308    7.6847   -1.7729 H         1 <1>         0.0907
     40 H13        -0.5792    8.5638   -1.7645 H         1 <1>         0.1235
     41 H14        -1.3485    3.3175    0.0761 H         1 <1>         0.2657
     42 H15        -2.5310    2.0366    0.0782 H         1 <1>         0.2758
     43 H16        -1.1213   -2.5482   -0.0095 H         1 <1>         0.2783
     44 H17        -2.8663   -2.6246    0.0050 H         1 <1>         0.2726
@<TRIPOS>BOND
     1    1    2 ar
     2    1    3 ar
     3    2    4 ar
     4    3    5 ar
     5    4   13 ar
     6    5   13 ar
     7    6    8 ar
     8    6   12 ar
     9    7    9 ar
    10    7   12 ar
    11    8   16 ar
    12    9   16 ar
    13   10   14 ar
    14   10   17 ar
    15   11   14 ar
    16   11   15 1
    17   11   19 ar
    18   12   14 1
    19   13   17 1
    20   15   18 2
    21   15   23 1
    22   16   26 1
    23   17   22 ar
    24   18   20 1
    25   18   27 1
    26   19   22 ar
    27   19   27 1
    28   20   24 am
    29   20   25 2
    30   21   26 1
    31    1   28 1
    32    2   29 1
    33    3   30 1
    34    4   31 1
    35    5   32 1
    36    6   33 1
    37    7   34 1
    38    8   35 1
    39    9   36 1
    40   10   37 1
    41   21   38 1
    42   21   39 1
    43   21   40 1
    44   23   41 1
    45   23   42 1
    46   24   43 1
    47   24   44 1
@<TRIPOS>Similarity
1.3957
@<TRIPOS>ShapeSim
0.8980
@<TRIPOS>PharmSim
0.4977
# END
# Name:		AO-476/42169422
# Created and modified by SHAFTS on Mon Jul  5 00:36:42 2010

# 

@<TRIPOS>MOLECULE
AO-476/42169422
   28    30     0
SMALL
USER_CHARGE


@<TRIPOS>ATOM
      1 C1          7.4442    1.1540   -0.0625 C.ar      1 <1>        -0.0981
      2 C2          6.5331    0.2875    0.5413 C.ar      1 <1>        -0.0888
      3 C3          6.9968    2.3364   -0.6519 C.ar      1 <1>        -0.0917
      4 C4         -0.7288    6.0220   -0.5265 C.2       1 <1>        -0.0844
      5 C5          5.1745    0.6033    0.5555 C.ar      1 <1>        -0.0520
      6 C6          5.6382    2.6522   -0.6377 C.ar      1 <1>        -0.0574
      7 C7         -0.1404    4.8033   -0.9409 C.2       1 <1>        -0.0643
      8 C8          2.3545    1.1989   -0.0186 C.2       1 <1>         0.0113
      9 C9         -0.1200    6.3558    0.6609 C.2       1 <1>         0.0087
     10 C10         1.2014    1.9446   -0.0024 C.2       1 <1>         0.0588
     11 C11         4.7270    1.7856   -0.0340 C.ar      1 <1>        -0.0060
     12 C12         1.6461    3.2803    0.0052 C.2       1 <1>         0.0624
     13 C13         0.7862    4.4794    0.0227 C.2       1 <1>         0.0625
     14 C14        -0.1292    1.4150    0.0042 C.2       1 <1>         0.0883
     15 N1          2.9781    3.3803   -0.0051 N.2       1 <1>        -0.2893
     16 N2          3.3800    2.0980   -0.0193 N.pl3     1 <1>        -0.2767
     17 O1         -1.1582    2.1180    0.0194 O.2       1 <1>        -0.4710
     18 O2          0.8049    5.4208    1.0025 O.3       1 <1>        -0.3612
     19 H1          8.5022    0.9095   -0.0722 H         1 <1>         0.1236
     20 H2          6.8814   -0.6326    1.0015 H         1 <1>         0.1314
     21 H3          7.7072    3.0114   -1.1206 H         1 <1>         0.1323
     22 H4         -1.5000    6.5865   -1.0303 H         1 <1>         0.1214
     23 H5          4.4749   -0.0806    1.0302 H         1 <1>         0.1426
     24 H6          5.3032    3.5774   -1.1002 H         1 <1>         0.1314
     25 H7         -0.3699    4.2388   -1.8340 H         1 <1>         0.1373
     26 H8          2.5239    0.1299   -0.0301 H         1 <1>         0.2406
     27 H9         -0.2261    7.1813    1.3492 H         1 <1>         0.2285
     28 H10        -0.2599    0.3004   -0.0044 H         1 <1>         0.2600
@<TRIPOS>BOND
     1    1    2 ar
     2    1    3 ar
     3    2    5 ar
     4    3    6 ar
     5    4    7 1
     6    4    9 2
     7    5   11 ar
     8    6   11 ar
     9    7   13 2
    10    8   10 2
    11    8   16 1
    12    9   18 1
    13   10   12 1
    14   10   14 1
    15   11   16 1
    16   12   13 1
    17   12   15 2
    18   13   18 1
    19   14   17 2
    20   15   16 1
    21    1   19 1
    22    2   20 1
    23    3   21 1
    24    4   22 1
    25    5   23 1
    26    6   24 1
    27    7   25 1
    28    8   26 1
    29    9   27 1
    30   14   28 1
@<TRIPOS>Similarity
1.3953
@<TRIPOS>ShapeSim
0.8601
@<TRIPOS>PharmSim
0.5352
# END
# Name:		AO-365/43401338
# Created and modified by SHAFTS on Mon Jul  5 00:36:42 2010

# 

@<TRIPOS>MOLECULE
AO-365/43401338
   42    45     0
SMALL
USER_CHARGE


@<TRIPOS>ATOM
      1 C1          0.9379    6.5110    0.6335 C.ar      1 <1>        -0.0935
      2 C2          1.0064    5.1178    0.6243 C.ar      1 <1>        -0.0659
      3 C3          5.2801    0.6599    1.0137 C.ar      1 <1>        -0.0492
      4 C4         -0.1461    7.1599    0.0424 C.ar      1 <1>        -0.0666
      5 C5          6.6695    0.5370    1.0197 C.ar      1 <1>        -0.0508
      6 C6         -1.0930    5.0225   -0.5674 C.ar      1 <1>        -0.0175
      7 C7          6.7857    1.7501   -1.0665 C.ar      1 <1>        -0.0090
      8 C8         -0.0090    4.3735    0.0238 C.ar      1 <1>         0.0153
      9 C9          4.6435    1.3277   -0.0324 C.ar      1 <1>         0.0516
     10 C10        -1.1616    6.4156   -0.5581 C.ar      1 <1>        -0.0023
     11 C11         7.4224    1.0822   -0.0203 C.ar      1 <1>        -0.0010
     12 C12         5.3962    1.8729   -1.0725 C.ar      1 <1>         0.0352
     13 C13         0.0613    2.9329    0.0146 C.2       1 <1>         0.1128
     14 C14         0.8519    0.9275   -0.0035 C.2       1 <1>         0.1566
     15 C15         3.2020    1.4426   -0.0198 C.2       1 <1>         0.1360
     16 C16        -2.2252    8.4754   -1.0892 C.3       1 <1>         0.0242
     17 C17         9.3631    0.2647    1.0845 C.3       1 <1>         0.0295
     18 C18         4.4132    1.7476   -3.2343 C.3       1 <1>         0.0318
     19 N1         -0.9553    2.0864    0.0175 N.2       1 <1>        -0.2299
     20 N2         -0.4422    0.7887    0.0058 N.2       1 <1>        -0.2392
     21 N3          2.5243    2.5634   -0.0071 N.2       1 <1>        -0.2777
     22 N4          1.2187    2.2248    0.0012 N.pl3     1 <1>        -0.2257
     23 O1         -2.2191    7.0494   -1.1348 O.3       1 <1>        -0.4160
     24 O2          8.7782    0.9611   -0.0147 O.3       1 <1>        -0.4083
     25 O3          4.7933    2.5290   -2.1038 O.3       1 <1>        -0.4007
     26 S1          2.2341   -0.0697   -0.0203 S.3       1 <1>         0.0621
     27 H1          1.7284    7.0909    1.1009 H         1 <1>         0.1306
     28 H2          1.8579    4.6263    1.0889 H         1 <1>         0.1298
     29 H3          4.7045    0.2309    1.8301 H         1 <1>         0.1686
     30 H4         -0.1936    8.2455    0.0526 H         1 <1>         0.1188
     31 H5          7.1588    0.0152    1.8375 H         1 <1>         0.1202
     32 H6         -1.8903    4.4513   -1.0390 H         1 <1>         0.1549
     33 H7          7.3726    2.1725   -1.8783 H         1 <1>         0.1356
     34 H8         -3.1232    8.8527   -1.5845 H         1 <1>         0.1229
     35 H9         -1.3320    8.8606   -1.5876 H         1 <1>         0.0894
     36 H10        -2.2250    8.7976   -0.0452 H         1 <1>         0.0897
     37 H11        10.4491    0.2405    0.9652 H         1 <1>         0.1259
     38 H12         8.9674   -0.7532    1.1244 H         1 <1>         0.0941
     39 H13         9.1123    0.7876    2.0106 H         1 <1>         0.0941
     40 H14         3.9443    2.3916   -3.9824 H         1 <1>         0.0970
     41 H15         3.7153    0.9671   -2.9210 H         1 <1>         0.0970
     42 H16         5.3055    1.2851   -3.6630 H         1 <1>         0.1293
@<TRIPOS>BOND
     1    1    2 ar
     2    1    4 ar
     3    2    8 ar
     4    3    5 ar
     5    3    9 ar
     6    4   10 ar
     7    5   11 ar
     8    6    8 ar
     9    6   10 ar
    10    7   11 ar
    11    7   12 ar
    12    8   13 1
    13    9   12 ar
    14    9   15 1
    15   10   23 1
    16   11   24 1
    17   12   25 1
    18   13   19 2
    19   13   22 1
    20   14   20 2
    21   14   22 1
    22   14   26 1
    23   15   21 2
    24   15   26 1
    25   16   23 1
    26   17   24 1
    27   18   25 1
    28   19   20 1
    29   21   22 1
    30    1   27 1
    31    2   28 1
    32    3   29 1
    33    4   30 1
    34    5   31 1
    35    6   32 1
    36    7   33 1
    37   16   34 1
    38   16   35 1
    39   16   36 1
    40   17   37 1
    41   17   38 1
    42   17   39 1
    43   18   40 1
    44   18   41 1
    45   18   42 1
@<TRIPOS>Similarity
1.3950
@<TRIPOS>ShapeSim
0.8915
@<TRIPOS>PharmSim
0.5035
# END
# Name:		AP-501/43179269
# Created and modified by SHAFTS on Mon Jul  5 00:36:42 2010

# 

@<TRIPOS>MOLECULE
AP-501/43179269
   34    37     0
SMALL
USER_CHARGE


@<TRIPOS>ATOM
      1 C1         -0.7223    6.3993   -1.0035 C.ar      1 <1>        -0.0773
      2 C2         -0.6331    5.0075   -1.0132 C.ar      1 <1>        -0.0547
      3 C3          5.3491    0.1893    0.3629 C.ar      1 <1>        -0.0541
      4 C4          5.4869    2.4604   -0.4498 C.ar      1 <1>        -0.0605
      5 C5          6.7410    0.1002    0.3498 C.ar      1 <1>        -0.0407
      6 C6          6.8788    2.3713   -0.4628 C.ar      1 <1>        -0.0522
      7 C7         -0.1550    7.1274    0.0424 C.ar      1 <1>        -0.0425
      8 C8          0.5904    5.0714    1.0692 C.ar      1 <1>        -0.0121
      9 C9          0.0232    4.3434    0.0232 C.ar      1 <1>         0.0171
     10 C10         4.7220    1.3694   -0.0370 C.ar      1 <1>         0.0056
     11 C11         7.5058    1.1911   -0.0629 C.ar      1 <1>        -0.0018
     12 C12         0.5011    6.4634    1.0788 C.ar      1 <1>         0.0724
     13 C13         0.1157    2.9039    0.0133 C.2       1 <1>         0.1135
     14 C14         0.9372    0.9108   -0.0061 C.2       1 <1>         0.1549
     15 C15         3.2790    1.4620   -0.0234 C.2       1 <1>         0.1236
     16 C16         9.4399   -0.1313    0.3450 C.3       1 <1>         0.0280
     17 N1         -0.8878    2.0418    0.0164 N.2       1 <1>        -0.2268
     18 N2         -0.3548    0.7522    0.0039 N.2       1 <1>        -0.2347
     19 N3          2.5840    2.5723   -0.0100 N.2       1 <1>        -0.2768
     20 N4          1.2837    2.2137   -0.0010 N.pl3     1 <1>        -0.2241
     21 O1          8.8641    1.1044   -0.0760 O.3       1 <1>        -0.4103
     22 F1          1.0461    7.1625    2.0829 F         1 <1>        -0.2663
     23 S1          2.3345   -0.0648   -0.0241 S.3       1 <1>         0.0525
     24 H1         -1.2336    6.9170   -1.8101 H         1 <1>         0.1421
     25 H2         -1.0801    4.4542   -1.8358 H         1 <1>         0.1504
     26 H3          4.7634   -0.6672    0.6868 H         1 <1>         0.1536
     27 H4          5.0078    3.3845   -0.7631 H         1 <1>         0.1553
     28 H5          7.2236   -0.8218    0.6623 H         1 <1>         0.1434
     29 H6          7.4694    3.2243   -0.7857 H         1 <1>         0.1245
     30 H7         -0.2244    8.2108    0.0503 H         1 <1>         0.1399
     31 H8          1.1044    4.5687    1.8847 H         1 <1>         0.1471
     32 H9         10.5291   -0.0652    0.2864 H         1 <1>         0.0928
     33 H10         9.0782   -0.9396   -0.2953 H         1 <1>         0.1255
     34 H11         9.1442   -0.3275    1.3783 H         1 <1>         0.0928
@<TRIPOS>BOND
     1    1    2 ar
     2    1    7 ar
     3    2    9 ar
     4    3    5 ar
     5    3   10 ar
     6    4    6 ar
     7    4   10 ar
     8    5   11 ar
     9    6   11 ar
    10    7   12 ar
    11    8    9 ar
    12    8   12 ar
    13    9   13 1
    14   10   15 1
    15   11   21 1
    16   12   22 1
    17   13   17 2
    18   13   20 1
    19   14   18 2
    20   14   20 1
    21   14   23 1
    22   15   19 2
    23   15   23 1
    24   16   21 1
    25   17   18 1
    26   19   20 1
    27    1   24 1
    28    2   25 1
    29    3   26 1
    30    4   27 1
    31    5   28 1
    32    6   29 1
    33    7   30 1
    34    8   31 1
    35   16   32 1
    36   16   33 1
    37   16   34 1
@<TRIPOS>Similarity
1.3950
@<TRIPOS>ShapeSim
0.8817
@<TRIPOS>PharmSim
0.5133
# END
# Name:		AO-365/43113660
# Created and modified by SHAFTS on Mon Jul  5 00:36:42 2010

# 

@<TRIPOS>MOLECULE
AO-365/43113660
   34    37     0
SMALL
USER_CHARGE


@<TRIPOS>ATOM
      1 C1          0.5010    6.4635    1.0789 C.ar      1 <1>        -0.0786
      2 C2          0.5900    5.0716    1.0694 C.ar      1 <1>        -0.0544
      3 C3          5.3491    0.1893    0.3627 C.ar      1 <1>        -0.0541
      4 C4          5.4868    2.4603   -0.4496 C.ar      1 <1>        -0.0604
      5 C5          6.7410    0.1002    0.3497 C.ar      1 <1>        -0.0408
      6 C6          6.8788    2.3713   -0.4627 C.ar      1 <1>        -0.0522
      7 C7         -0.1550    7.1275    0.0423 C.ar      1 <1>        -0.0668
      8 C8         -0.6328    5.0075   -1.0133 C.ar      1 <1>        -0.0360
      9 C9          0.0231    4.3435    0.0234 C.ar      1 <1>         0.0161
     10 C10         4.7219    1.3693   -0.0371 C.ar      1 <1>         0.0056
     11 C11         7.5059    1.1912   -0.0630 C.ar      1 <1>        -0.0019
     12 C12        -0.7219    6.3995   -1.0039 C.ar      1 <1>        -0.0049
     13 C13         0.1157    2.9037    0.0134 C.2       1 <1>         0.1124
     14 C14         0.9372    0.9107   -0.0063 C.2       1 <1>         0.1546
     15 C15         3.2790    1.4620   -0.0235 C.2       1 <1>         0.1235
     16 C16         9.4399   -0.1313    0.3450 C.3       1 <1>         0.0279
     17 N1         -0.8878    2.0417    0.0164 N.2       1 <1>        -0.2278
     18 N2         -0.3548    0.7521    0.0037 N.2       1 <1>        -0.2352
     19 N3          2.5841    2.5722   -0.0099 N.2       1 <1>        -0.2766
     20 N4          1.2837    2.2136   -0.0010 N.pl3     1 <1>        -0.2244
     21 O1          8.8641    1.1045   -0.0759 O.3       1 <1>        -0.4103
     22 S1          2.3346   -0.0650   -0.0243 S.3       1 <1>         0.0521
     23 Cl1        -1.5298    7.2203   -2.2826 Cl        1 <1>        -0.1387
     24 H1          0.9418    7.0307    1.8936 H         1 <1>         0.1393
     25 H2          1.1041    4.5684    1.8850 H         1 <1>         0.1524
     26 H3          4.7635   -0.6673    0.6865 H         1 <1>         0.1535
     27 H4          5.0078    3.3845   -0.7628 H         1 <1>         0.1555
     28 H5          7.2236   -0.8219    0.6621 H         1 <1>         0.1433
     29 H6          7.4693    3.2244   -0.7855 H         1 <1>         0.1244
     30 H7         -0.2170    8.2126    0.0628 H         1 <1>         0.1418
     31 H8         -1.0752    4.4405   -1.8302 H         1 <1>         0.1499
     32 H9         10.5291   -0.0652    0.2864 H         1 <1>         0.0927
     33 H10         9.0782   -0.9397   -0.2955 H         1 <1>         0.0927
     34 H11         9.1441   -0.3276    1.3782 H         1 <1>         0.1255
@<TRIPOS>BOND
     1    1    2 ar
     2    1    7 ar
     3    2    9 ar
     4    3    5 ar
     5    3   10 ar
     6    4    6 ar
     7    4   10 ar
     8    5   11 ar
     9    6   11 ar
    10    7   12 ar
    11    8    9 ar
    12    8   12 ar
    13    9   13 1
    14   10   15 1
    15   11   21 1
    16   12   23 1
    17   13   17 2
    18   13   20 1
    19   14   18 2
    20   14   20 1
    21   14   22 1
    22   15   19 2
    23   15   22 1
    24   16   21 1
    25   17   18 1
    26   19   20 1
    27    1   24 1
    28    2   25 1
    29    3   26 1
    30    4   27 1
    31    5   28 1
    32    6   29 1
    33    7   30 1
    34    8   31 1
    35   16   32 1
    36   16   33 1
    37   16   34 1
@<TRIPOS>Similarity
1.3940
@<TRIPOS>ShapeSim
0.8808
@<TRIPOS>PharmSim
0.5133
# END
# Name:		AO-476/42123765
# Created and modified by SHAFTS on Mon Jul  5 00:36:42 2010

# 

@<TRIPOS>MOLECULE
AO-476/42123765
   41    43     0
SMALL
USER_CHARGE


@<TRIPOS>ATOM
      1 C1         -0.9590    1.8430    0.0209 C.1       1 <1>         0.0629
      2 C2          5.3838    1.9003   -1.0856 C.ar      1 <1>        -0.0723
      3 C3          5.2536    0.6908    1.0018 C.ar      1 <1>        -0.0771
      4 C4          0.3532    4.8887   -1.1837 C.ar      1 <1>        -0.0839
      5 C5          0.3748    4.8752    1.2321 C.ar      1 <1>        -0.0761
      6 C6          6.7677    1.7262   -1.1002 C.ar      1 <1>        -0.0961
      7 C7          6.6376    0.5167    0.9871 C.ar      1 <1>        -0.0987
      8 C8         -0.2217    6.1595   -1.1715 C.ar      1 <1>        -0.0655
      9 C9         -0.2000    6.1461    1.2443 C.ar      1 <1>        -0.0533
     10 C10         2.6344    2.8302   -0.0072 C.ar      1 <1>        -0.0286
     11 C11         0.4740    1.7732    0.0057 C.ar      1 <1>         0.1224
     12 C12         0.6514    4.2465    0.0180 C.ar      1 <1>        -0.0576
     13 C13         4.6268    1.3826   -0.0346 C.ar      1 <1>        -0.0286
     14 C14         1.2476    2.9287    0.0056 C.ar      1 <1>        -0.0177
     15 C15         7.3945    1.0344   -0.0639 C.ar      1 <1>        -0.1163
     16 C16        -0.4983    6.7882    0.0425 C.ar      1 <1>        -0.0124
     17 C17         3.1945    1.5629   -0.0195 C.ar      1 <1>        -0.0057
     18 C18         1.1309    0.5533   -0.0073 C.ar      1 <1>         0.0219
     19 C19         8.8741    0.8485   -0.0792 C.3       1 <1>        -0.0422
     20 C20        -1.3369    8.6272   -1.2107 C.3       1 <1>         0.0245
     21 N1         -2.1181    1.8994    0.0331 N.1       1 <1>        -0.3814
     22 N2          2.4760    0.4179   -0.0198 N.ar      1 <1>        -0.3522
     23 N3          0.3600   -0.6370   -0.0072 N.pl3     1 <1>        -0.3650
     24 O1         -1.0586    8.0283    0.0541 O.3       1 <1>        -0.4169
     25 H1          4.9099    2.4426   -1.9005 H         1 <1>         0.1411
     26 H2          4.6771    0.2808    1.8276 H         1 <1>         0.1314
     27 H3          0.5629    4.4116   -2.1381 H         1 <1>         0.1381
     28 H4          0.6015    4.3878    2.1773 H         1 <1>         0.1363
     29 H5          7.3497    2.1339   -1.9224 H         1 <1>         0.1181
     30 H6          7.1176   -0.0242    1.7985 H         1 <1>         0.1187
     31 H7         -0.4515    6.6547   -2.1110 H         1 <1>         0.1158
     32 H8         -0.4131    6.6311    2.1931 H         1 <1>         0.1314
     33 H9          3.2612    3.7179   -0.0084 H         1 <1>         0.1316
     34 H10         9.3692    1.6817    0.4345 H         1 <1>         0.0532
     35 H11         9.1634   -0.0871    0.4166 H         1 <1>         0.0571
     36 H12         9.2584    0.7955   -1.1063 H         1 <1>         0.0571
     37 H13        -1.7817    9.6136   -1.0577 H         1 <1>         0.1230
     38 H14        -2.0233    7.9896   -1.7736 H         1 <1>         0.0903
     39 H15        -0.4027    8.7336   -1.7670 H         1 <1>         0.0898
     40 H16        -0.6321   -0.5665    0.0499 H         1 <1>         0.2927
     41 H17         0.8312   -1.5139    0.0311 H         1 <1>         0.2907
@<TRIPOS>BOND
     1    1   11 1
     2    1   21 3
     3    2    6 ar
     4    2   13 ar
     5    3    7 ar
     6    3   13 ar
     7    4    8 ar
     8    4   12 ar
     9    5    9 ar
    10    5   12 ar
    11    6   15 ar
    12    7   15 ar
    13    8   16 ar
    14    9   16 ar
    15   10   14 ar
    16   10   17 ar
    17   11   14 ar
    18   11   18 ar
    19   12   14 1
    20   13   17 1
    21   15   19 1
    22   16   24 1
    23   17   22 ar
    24   18   22 ar
    25   18   23 1
    26   20   24 1
    27    2   25 1
    28    3   26 1
    29    4   27 1
    30    5   28 1
    31    6   29 1
    32    7   30 1
    33    8   31 1
    34    9   32 1
    35   10   33 1
    36   19   34 1
    37   19   35 1
    38   19   36 1
    39   20   37 1
    40   20   38 1
    41   20   39 1
    42   23   40 1
    43   23   41 1
@<TRIPOS>Similarity
1.3937
@<TRIPOS>ShapeSim
0.9079
@<TRIPOS>PharmSim
0.4857
# END
# Name:		AO-365/43400596
# Created and modified by SHAFTS on Mon Jul  5 00:36:42 2010

# 

@<TRIPOS>MOLECULE
AO-365/43400596
   34    37     0
SMALL
USER_CHARGE


@<TRIPOS>ATOM
      1 C1          0.5008    6.4636    1.0788 C.ar      1 <1>        -0.0779
      2 C2          0.5903    5.0717    1.0690 C.ar      1 <1>        -0.0527
      3 C3          5.3492    0.1892    0.3629 C.ar      1 <1>        -0.0542
      4 C4          5.4870    2.4602   -0.4499 C.ar      1 <1>        -0.0604
      5 C5          6.7411    0.1000    0.3499 C.ar      1 <1>        -0.0408
      6 C6          6.8790    2.3711   -0.4628 C.ar      1 <1>        -0.0522
      7 C7         -0.1559    7.1275    0.0426 C.ar      1 <1>        -0.0747
      8 C8         -0.6332    5.0075   -1.0132 C.ar      1 <1>        -0.0435
      9 C9          0.0234    4.3436    0.0230 C.ar      1 <1>         0.0170
     10 C10         4.7221    1.3692   -0.0371 C.ar      1 <1>         0.0056
     11 C11         7.5060    1.1910   -0.0629 C.ar      1 <1>        -0.0020
     12 C12        -0.7227    6.3995   -1.0034 C.ar      1 <1>        -0.0300
     13 C13         0.1159    2.9039    0.0133 C.2       1 <1>         0.1122
     14 C14         0.9372    0.9108   -0.0061 C.2       1 <1>         0.1545
     15 C15         3.2791    1.4619   -0.0234 C.2       1 <1>         0.1235
     16 C16         9.4400   -0.1315    0.3451 C.3       1 <1>         0.0280
     17 N1         -0.8876    2.0418    0.0164 N.2       1 <1>        -0.2282
     18 N2         -0.3547    0.7521    0.0038 N.2       1 <1>        -0.2353
     19 N3          2.5842    2.5722   -0.0100 N.2       1 <1>        -0.2767
     20 N4          1.2839    2.2136   -0.0011 N.pl3     1 <1>        -0.2246
     21 O1          8.8642    1.1042   -0.0759 O.3       1 <1>        -0.4107
     22 S1          2.3347   -0.0650   -0.0241 S.3       1 <1>         0.0521
     23 Br1        -1.6108    7.3007   -2.4077 Br        1 <1>        -0.1060
     24 H1          0.9423    7.0307    1.8932 H         1 <1>         0.1385
     25 H2          1.1046    4.5686    1.8849 H         1 <1>         0.1550
     26 H3          4.7635   -0.6674    0.6869 H         1 <1>         0.1534
     27 H4          5.0080    3.3843   -0.7631 H         1 <1>         0.1557
     28 H5          7.2237   -0.8220    0.6624 H         1 <1>         0.1432
     29 H6          7.4696    3.2241   -0.7857 H         1 <1>         0.1245
     30 H7         -0.2167    8.2125    0.0652 H         1 <1>         0.1433
     31 H8         -1.0750    4.4385   -1.8289 H         1 <1>         0.1519
     32 H9         10.5292   -0.0654    0.2865 H         1 <1>         0.1259
     33 H10         9.0783   -0.9400   -0.2952 H         1 <1>         0.0927
     34 H11         9.1443   -0.3276    1.3784 H         1 <1>         0.0927
@<TRIPOS>BOND
     1    1    2 ar
     2    1    7 ar
     3    2    9 ar
     4    3    5 ar
     5    3   10 ar
     6    4    6 ar
     7    4   10 ar
     8    5   11 ar
     9    6   11 ar
    10    7   12 ar
    11    8    9 ar
    12    8   12 ar
    13    9   13 1
    14   10   15 1
    15   11   21 1
    16   12   23 1
    17   13   17 2
    18   13   20 1
    19   14   18 2
    20   14   20 1
    21   14   22 1
    22   15   19 2
    23   15   22 1
    24   16   21 1
    25   17   18 1
    26   19   20 1
    27    1   24 1
    28    2   25 1
    29    3   26 1
    30    4   27 1
    31    5   28 1
    32    6   29 1
    33    7   30 1
    34    8   31 1
    35   16   32 1
    36   16   33 1
    37   16   34 1
@<TRIPOS>Similarity
1.3932
@<TRIPOS>ShapeSim
0.8799
@<TRIPOS>PharmSim
0.5133
# END
# Name:		AF-399/13200039
# Created and modified by SHAFTS on Mon Jul  5 00:36:42 2010

# 

@<TRIPOS>MOLECULE
AF-399/13200039
   42    45     0
SMALL
USER_CHARGE


@<TRIPOS>ATOM
      1 C1          5.4824    1.8737   -1.0585 C.ar      1 <1>        -0.0703
      2 C2          5.3338    0.5750    0.9733 C.ar      1 <1>        -0.0768
      3 C3          0.2822    5.2413   -1.2950 C.ar      1 <1>        -0.0760
      4 C4          0.2967    4.6280    1.0420 C.ar      1 <1>        -0.0838
      5 C5          6.8652    1.6915   -1.0739 C.ar      1 <1>        -0.0915
      6 C6          6.7166    0.3926    0.9578 C.ar      1 <1>        -0.0954
      7 C7         -0.3742    6.4307   -0.9787 C.ar      1 <1>        -0.0502
      8 C8         -0.3597    5.8175    1.3581 C.ar      1 <1>        -0.0621
      9 C9         -0.9845    0.5244   -0.0201 C.2       1 <1>         0.0572
     10 C10         4.7167    1.3155   -0.0348 C.ar      1 <1>        -0.0259
     11 C11         0.6177    4.3399   -0.2846 C.ar      1 <1>        -0.0623
     12 C12         7.4823    0.9509   -0.0658 C.ar      1 <1>        -0.1122
     13 C13        -0.6951    6.7188    0.3478 C.ar      1 <1>         0.0090
     14 C14         1.1228    0.6444   -0.0120 C.2       1 <1>         0.1021
     15 C15         3.2383    1.5092   -0.0176 C.2       1 <1>         0.0144
     16 C16         2.6989    2.9381    0.0552 C.3       1 <1>         0.0513
     17 C17         1.3305    3.0492   -0.6275 C.3       1 <1>         0.0472
     18 C18         8.9609    0.7554   -0.0833 C.3       1 <1>        -0.0396
     19 C19        -2.2053    8.4284   -0.3262 C.3       1 <1>         0.2897
     20 N1          0.1432   -0.2188    0.1869 N.2       1 <1>        -0.3149
     21 N2         -0.7839    1.8025   -0.3419 N.2       1 <1>        -0.3055
     22 N3          2.4678    0.4591   -0.0195 N.2       1 <1>        -0.2970
     23 N4          0.5544    1.8631   -0.2899 N.pl3     1 <1>        -0.2688
     24 O1         -1.3345    7.8802    0.6562 O.3       1 <1>        -0.3253
     25 F1         -3.1855    9.1045    0.3270 F         1 <1>        -0.2256
     26 F2         -1.5275    9.3451   -1.0597 F         1 <1>        -0.2251
     27 H1          5.0113    2.4524   -1.8487 H         1 <1>         0.1478
     28 H2          4.7473    0.1354    1.7759 H         1 <1>         0.1346
     29 H3          0.5283    5.0249   -2.3310 H         1 <1>         0.1346
     30 H4          0.5541    3.9315    1.8357 H         1 <1>         0.1374
     31 H5          7.4539    2.1297   -1.8753 H         1 <1>         0.1227
     32 H6          7.1892   -0.1863    1.7472 H         1 <1>         0.1222
     33 H7         -0.6326    7.1291   -1.7703 H         1 <1>         0.1376
     34 H8         -0.6065    6.0363    2.3933 H         1 <1>         0.1230
     35 H9         -1.9818    0.1192    0.0654 H         1 <1>         0.2901
     36 H10         2.6716    3.2871    1.0868 H         1 <1>         0.1109
     37 H11         3.4172    3.5537   -0.4929 H         1 <1>         0.1206
     38 H12         1.4849    3.0309   -1.7420 H         1 <1>         0.1581
     39 H13         9.4593    1.5620    0.4681 H         1 <1>         0.0605
     40 H14         9.2414   -0.2028    0.3727 H         1 <1>         0.0564
     41 H15         9.3490    0.7442   -1.1101 H         1 <1>         0.0561
     42 H16        -2.6702    7.6716   -0.9670 H         1 <1>         0.3245
@<TRIPOS>BOND
     1    1    5 ar
     2    1   10 ar
     3    2    6 ar
     4    2   10 ar
     5    3    7 ar
     6    3   11 ar
     7    4    8 ar
     8    4   11 ar
     9    5   12 ar
    10    6   12 ar
    11    7   13 ar
    12    8   13 ar
    13    9   20 1
    14    9   21 2
    15   10   15 1
    16   11   17 1
    17   12   18 1
    18   13   24 1
    19   14   20 2
    20   14   22 1
    21   14   23 1
    22   15   16 1
    23   15   22 2
    24   16   17 1
    25   17   23 1
    26   19   24 1
    27   19   25 1
    28   19   26 1
    29   21   23 1
    30    1   27 1
    31    2   28 1
    32    3   29 1
    33    4   30 1
    34    5   31 1
    35    6   32 1
    36    7   33 1
    37    8   34 1
    38    9   35 1
    39   16   36 1
    40   16   37 1
    41   17   38 1
    42   18   39 1
    43   18   40 1
    44   18   41 1
    45   19   42 1
@<TRIPOS>Similarity
1.3926
@<TRIPOS>ShapeSim
0.9033
@<TRIPOS>PharmSim
0.4894
# END
# Name:		AP-501/43237251
# Created and modified by SHAFTS on Mon Jul  5 00:36:42 2010

# 

@<TRIPOS>MOLECULE
AP-501/43237251
   37    40     0
SMALL
USER_CHARGE


@<TRIPOS>ATOM
      1 C1         -0.7234    6.3987   -1.0040 C.ar      1 <1>        -0.0941
      2 C2         -0.6324    5.0069   -1.0137 C.ar      1 <1>        -0.0678
      3 C3          5.3493    0.1889    0.3629 C.ar      1 <1>        -0.0606
      4 C4          5.4874    2.4599   -0.4499 C.ar      1 <1>        -0.0542
      5 C5         -0.1579    7.1274    0.0425 C.ar      1 <1>        -0.0985
      6 C6          6.7412    0.0996    0.3499 C.ar      1 <1>        -0.0526
      7 C7          6.8793    2.3706   -0.4628 C.ar      1 <1>        -0.0410
      8 C8          0.5895    5.0722    1.0696 C.ar      1 <1>        -0.0618
      9 C9          0.0240    4.3436    0.0231 C.ar      1 <1>         0.0071
     10 C10         4.7224    1.3690   -0.0370 C.ar      1 <1>         0.0052
     11 C11         0.4985    6.4641    1.0793 C.ar      1 <1>        -0.1041
     12 C12         7.5063    1.1904   -0.0630 C.ar      1 <1>        -0.0023
     13 C13         0.1163    2.9041    0.0134 C.2       1 <1>         0.1096
     14 C14         0.9375    0.9110   -0.0061 C.2       1 <1>         0.1523
     15 C15         3.2795    1.4619   -0.0235 C.2       1 <1>         0.1224
     16 C16         1.1013    7.2434    2.1989 C.3       1 <1>        -0.0406
     17 C17         9.4402   -0.1322    0.3451 C.3       1 <1>         0.0278
     18 N1         -0.8872    2.0423    0.0164 N.2       1 <1>        -0.2303
     19 N2         -0.3544    0.7525    0.0039 N.2       1 <1>        -0.2377
     20 N3          2.5847    2.5723   -0.0100 N.2       1 <1>        -0.2764
     21 N4          1.2843    2.2138   -0.0010 N.pl3     1 <1>        -0.2248
     22 O1          8.8645    1.1036   -0.0760 O.3       1 <1>        -0.4106
     23 S1          2.3348   -0.0649   -0.0241 S.3       1 <1>         0.0491
     24 H1         -1.2338    6.9157   -1.8112 H         1 <1>         0.1233
     25 H2         -1.0780    4.4535   -1.8369 H         1 <1>         0.1326
     26 H3          4.7636   -0.6675    0.6868 H         1 <1>         0.1552
     27 H4          5.0085    3.3841   -0.7631 H         1 <1>         0.1534
     28 H5         -0.2336    8.2113    0.0418 H         1 <1>         0.1260
     29 H6          7.2238   -0.8225    0.6623 H         1 <1>         0.1241
     30 H7          7.4701    3.2236   -0.7858 H         1 <1>         0.1431
     31 H8          1.1023    4.5608    1.8819 H         1 <1>         0.1448
     32 H9          0.3709    7.3803    3.0057 H         1 <1>         0.0587
     33 H10         1.9824    6.7339    2.6100 H         1 <1>         0.0566
     34 H11         1.4358    8.2329    1.8606 H         1 <1>         0.0559
     35 H12        10.5293   -0.0664    0.2864 H         1 <1>         0.1253
     36 H13         9.0784   -0.9407   -0.2952 H         1 <1>         0.0926
     37 H14         9.1444   -0.3284    1.3783 H         1 <1>         0.0926
@<TRIPOS>BOND
     1    1    2 ar
     2    1    5 ar
     3    2    9 ar
     4    3    6 ar
     5    3   10 ar
     6    4    7 ar
     7    4   10 ar
     8    5   11 ar
     9    6   12 ar
    10    7   12 ar
    11    8    9 ar
    12    8   11 ar
    13    9   13 1
    14   10   15 1
    15   11   16 1
    16   12   22 1
    17   13   18 2
    18   13   21 1
    19   14   19 2
    20   14   21 1
    21   14   23 1
    22   15   20 2
    23   15   23 1
    24   17   22 1
    25   18   19 1
    26   20   21 1
    27    1   24 1
    28    2   25 1
    29    3   26 1
    30    4   27 1
    31    5   28 1
    32    6   29 1
    33    7   30 1
    34    8   31 1
    35   16   32 1
    36   16   33 1
    37   16   34 1
    38   17   35 1
    39   17   36 1
    40   17   37 1
@<TRIPOS>Similarity
1.3925
@<TRIPOS>ShapeSim
0.8792
@<TRIPOS>PharmSim
0.5133
# END
# Name:		AO-476/43362682
# Created and modified by SHAFTS on Mon Jul  5 00:36:42 2010

# 

@<TRIPOS>MOLECULE
AO-476/43362682
   42    44     0
SMALL
USER_CHARGE


@<TRIPOS>ATOM
      1 C1          6.6576    0.6017    0.9864 C.ar      1 <1>        -0.0868
      2 C2          1.3265    5.8616    0.6248 C.ar      1 <1>        -0.0684
      3 C3         -0.3641    4.6198   -0.5737 C.ar      1 <1>        -0.0644
      4 C4          5.3310    1.0324    1.0017 C.ar      1 <1>        -0.0583
      5 C5          7.4979    0.9682   -0.0649 C.ar      1 <1>        -0.0628
      6 C6          0.4951    6.9814    0.6375 C.ar      1 <1>        -0.0461
      7 C7         -1.1957    5.7396   -0.5609 C.ar      1 <1>        -0.0440
      8 C8          5.6849    2.1960   -1.0859 C.ar      1 <1>        -0.0165
      9 C9          3.1274    3.5698   -0.0065 C.2       1 <1>        -0.0117
     10 C10         0.8971    4.6807    0.0192 C.ar      1 <1>        -0.0403
     11 C11         4.8446    1.8295   -0.0346 C.ar      1 <1>        -0.0183
     12 C12         7.0115    1.7653   -1.1010 C.ar      1 <1>        -0.0009
     13 C13        -0.7660    6.9204    0.0447 C.ar      1 <1>         0.0599
     14 C14         1.7532    3.5279    0.0058 C.2       1 <1>        -0.0128
     15 C15         2.3839    1.4952   -0.0151 C.2       1 <1>         0.0636
     16 C16         0.3791   -2.1022   -0.0068 C.2       1 <1>         0.0646
     17 C17        -1.0634   -2.4902    0.0004 C.3       1 <1>         0.0300
     18 C18         9.1762    1.6475   -2.0790 C.3       1 <1>         0.0257
     19 C19         0.6330   -0.6137   -0.0036 C.3       1 <1>         0.1014
     20 N1          1.2966    2.2337    0.0008 N.2       1 <1>        -0.3709
     21 N2          3.5171    2.2602   -0.0194 N.pl3     1 <1>        -0.3080
     22 O1          1.2378   -2.9743   -0.0169 O.2       1 <1>        -0.4660
     23 O2          7.8318    2.1227   -2.1268 O.3       1 <1>        -0.4141
     24 F1         -1.5645    7.9958    0.0569 F         1 <1>        -0.2717
     25 S1          2.4086   -0.2372   -0.0227 S.3       1 <1>        -0.0669
     26 H1          7.0365   -0.0191    1.7930 H         1 <1>         0.1408
     27 H2          2.3071    5.9255    1.0907 H         1 <1>         0.1367
     28 H3         -0.7140    3.7066   -1.0496 H         1 <1>         0.1455
     29 H4          4.6867    0.7392    1.8267 H         1 <1>         0.1331
     30 H5          8.5304    0.6292   -0.0704 H         1 <1>         0.1211
     31 H6          0.8297    7.9010    1.1084 H         1 <1>         0.1320
     32 H7         -2.1778    5.6929   -1.0221 H         1 <1>         0.1316
     33 H8          5.3129    2.8171   -1.8979 H         1 <1>         0.1451
     34 H9          3.8344    4.3895   -0.0106 H         1 <1>         0.2018
     35 H10        -1.4766   -2.5965   -1.0149 H         1 <1>         0.0766
     36 H11        -1.2367   -3.4596    0.4933 H         1 <1>         0.0785
     37 H12        -1.7249   -1.7755    0.5144 H         1 <1>         0.0844
     38 H13         9.7212    2.0050   -2.9560 H         1 <1>         0.1242
     39 H14         9.1768    0.5548   -2.0567 H         1 <1>         0.0912
     40 H15         9.6559    2.0286   -1.1743 H         1 <1>         0.0915
     41 H16         0.1892   -0.1768    0.8955 H         1 <1>         0.1195
     42 H17         0.1691   -0.1721   -0.8900 H         1 <1>         0.1301
@<TRIPOS>BOND
     1    1    4 ar
     2    1    5 ar
     3    2    6 ar
     4    2   10 ar
     5    3    7 ar
     6    3   10 ar
     7    4   11 ar
     8    5   12 ar
     9    6   13 ar
    10    7   13 ar
    11    8   11 ar
    12    8   12 ar
    13    9   14 2
    14    9   21 1
    15   10   14 1
    16   11   21 1
    17   12   23 1
    18   13   24 1
    19   14   20 1
    20   15   20 2
    21   15   21 1
    22   15   25 1
    23   16   17 1
    24   16   19 1
    25   16   22 2
    26   18   23 1
    27   19   25 1
    28    1   26 1
    29    2   27 1
    30    3   28 1
    31    4   29 1
    32    5   30 1
    33    6   31 1
    34    7   32 1
    35    8   33 1
    36    9   34 1
    37   17   35 1
    38   17   36 1
    39   17   37 1
    40   18   38 1
    41   18   39 1
    42   18   40 1
    43   19   41 1
    44   19   42 1
@<TRIPOS>Similarity
1.3914
@<TRIPOS>ShapeSim
0.8559
@<TRIPOS>PharmSim
0.5355
# END
# Name:		AO-365/43113753
# Created and modified by SHAFTS on Mon Jul  5 00:36:42 2010

# 

@<TRIPOS>MOLECULE
AO-365/43113753
   34    37     0
SMALL
USER_CHARGE


@<TRIPOS>ATOM
      1 C1          0.9808    6.4581    0.6391 C.ar      1 <1>        -0.0843
      2 C2         -0.0958    7.1278    0.0577 C.ar      1 <1>        -0.0868
      3 C3          1.0310    5.0643    0.6141 C.ar      1 <1>        -0.0558
      4 C4          5.3435    0.2007    0.3706 C.ar      1 <1>        -0.0542
      5 C5          5.4739    2.4669   -0.4569 C.ar      1 <1>        -0.0606
      6 C6          6.7357    0.1157    0.3572 C.ar      1 <1>        -0.0410
      7 C7          6.8661    2.3819   -0.4702 C.ar      1 <1>        -0.0526
      8 C8         -1.1221    6.4037   -0.5489 C.ar      1 <1>        -0.0683
      9 C9          0.0047    4.3402    0.0076 C.ar      1 <1>         0.0270
     10 C10         4.7127    1.3763   -0.0365 C.ar      1 <1>         0.0053
     11 C11         7.4971    1.2063   -0.0632 C.ar      1 <1>        -0.0023
     12 C12        -1.0719    5.0099   -0.5739 C.ar      1 <1>         0.0018
     13 C13         0.1018    2.8971    0.0070 C.2       1 <1>         0.1184
     14 C14         0.9292    0.9066   -0.0000 C.2       1 <1>         0.1551
     15 C15         3.2694    1.4647   -0.0225 C.2       1 <1>         0.1231
     16 C16         9.4353   -0.1077    0.3521 C.3       1 <1>         0.0278
     17 N1         -0.8991    2.0322    0.0164 N.2       1 <1>        -0.2202
     18 N2         -0.3623    0.7441    0.0119 N.2       1 <1>        -0.2310
     19 N3          2.5711    2.5729   -0.0158 N.2       1 <1>        -0.2751
     20 N4          1.2719    2.2105   -0.0037 N.pl3     1 <1>        -0.2231
     21 O1          8.8555    1.1236   -0.0765 O.3       1 <1>        -0.4106
     22 S1          2.3295   -0.0650   -0.0127 S.3       1 <1>         0.0504
     23 Br1        -2.5047    4.0883   -1.4172 Br        1 <1>        -0.0816
     24 H1          1.7799    7.0221    1.1114 H         1 <1>         0.1337
     25 H2         -0.1347    8.2129    0.0774 H         1 <1>         0.1367
     26 H3          1.8783    4.5594    1.0727 H         1 <1>         0.1400
     27 H4          4.7607   -0.6554    0.7004 H         1 <1>         0.1533
     28 H5          4.9919    3.3875   -0.7758 H         1 <1>         0.1553
     29 H6          7.2213   -0.8028    0.6754 H         1 <1>         0.1431
     30 H7          7.4540    3.2346   -0.7991 H         1 <1>         0.1239
     31 H8         -1.9524    6.9443   -0.9964 H         1 <1>         0.1422
     32 H9         10.5242   -0.0388    0.2923 H         1 <1>         0.0926
     33 H10         9.0757   -0.9214   -0.2827 H         1 <1>         0.0926
     34 H11         9.1408   -0.2980    1.3869 H         1 <1>         0.1253
@<TRIPOS>BOND
     1    1    2 ar
     2    1    3 ar
     3    2    8 ar
     4    3    9 ar
     5    4    6 ar
     6    4   10 ar
     7    5    7 ar
     8    5   10 ar
     9    6   11 ar
    10    7   11 ar
    11    8   12 ar
    12    9   12 ar
    13    9   13 1
    14   10   15 1
    15   11   21 1
    16   12   23 1
    17   13   17 2
    18   13   20 1
    19   14   18 2
    20   14   20 1
    21   14   22 1
    22   15   19 2
    23   15   22 1
    24   16   21 1
    25   17   18 1
    26   19   20 1
    27    1   24 1
    28    2   25 1
    29    3   26 1
    30    4   27 1
    31    5   28 1
    32    6   29 1
    33    7   30 1
    34    8   31 1
    35   16   32 1
    36   16   33 1
    37   16   34 1
@<TRIPOS>Similarity
1.3913
@<TRIPOS>ShapeSim
0.8785
@<TRIPOS>PharmSim
0.5128
# END
# Name:		AO-476/15578132
# Created and modified by SHAFTS on Mon Jul  5 00:36:42 2010

# 

@<TRIPOS>MOLECULE
AO-476/15578132
   41    44     0
SMALL
USER_CHARGE


@<TRIPOS>ATOM
      1 C1         -0.3782    6.6866    0.0404 C.ar      1 <1>        -0.1040
      2 C2         -0.1137    6.0523   -1.1733 C.ar      1 <1>        -0.0988
      3 C3         -0.0914    6.0398    1.2425 C.ar      1 <1>        -0.1010
      4 C4          0.4377    4.7710   -1.1849 C.ar      1 <1>        -0.0866
      5 C5          0.4600    4.7586    1.2309 C.ar      1 <1>        -0.0901
      6 C6          5.4502    1.8840   -1.0862 C.ar      1 <1>        -0.0698
      7 C7          5.3471    0.6710    1.0007 C.ar      1 <1>        -0.0668
      8 C8          6.8377    1.7416   -1.1004 C.ar      1 <1>        -0.0613
      9 C9          6.7347    0.5287    0.9864 C.ar      1 <1>        -0.0523
     10 C10         2.6821    2.7436   -0.0085 C.ar      1 <1>        -0.0243
     11 C11        -0.8016   -0.6955    0.0041 C.ar      1 <1>         0.0441
     12 C12         0.5663    1.5935    0.0049 C.ar      1 <1>         0.0622
     13 C13         0.7245    4.1242    0.0172 C.ar      1 <1>        -0.0673
     14 C14         4.7050    1.3487   -0.0356 C.ar      1 <1>        -0.0237
     15 C15         1.2991    2.7895    0.0046 C.ar      1 <1>        -0.0341
     16 C16         7.4799    1.0638   -0.0641 C.ar      1 <1>        -0.0117
     17 C17         3.2687    1.4960   -0.0208 C.ar      1 <1>         0.0073
     18 C18         1.2386    0.3658   -0.0087 C.ar      1 <1>         0.0551
     19 C19        -0.8258    1.5581    0.0180 C.ar      1 <1>         0.0059
     20 C20         9.4257    0.2204    1.0121 C.3       1 <1>         0.0250
     21 N1          0.5454   -0.7783   -0.0091 N.ar      1 <1>        -0.3290
     22 N2         -1.5423    0.4216    0.0181 N.ar      1 <1>        -0.3429
     23 N3          2.5781    0.3303   -0.0212 N.ar      1 <1>        -0.3309
     24 N4         -1.6003    2.7388    0.0319 N.pl3     1 <1>        -0.3667
     25 O1          8.8336    0.9245   -0.0786 O.3       1 <1>        -0.4156
     26 H1         -0.8060    7.6849    0.0492 H         1 <1>         0.1222
     27 H2         -0.3354    6.5564   -2.1094 H         1 <1>         0.1195
     28 H3         -0.2959    6.5337    2.1879 H         1 <1>         0.1203
     29 H4          0.6384    4.2899   -2.1394 H         1 <1>         0.1309
     30 H5          0.6788    4.2671    2.1759 H         1 <1>         0.1269
     31 H6          4.9640    2.4148   -1.9012 H         1 <1>         0.1527
     32 H7          4.7802    0.2482    1.8266 H         1 <1>         0.1439
     33 H8          7.4129    2.1605   -1.9217 H         1 <1>         0.1154
     34 H9          7.2295   -0.0005    1.7963 H         1 <1>         0.1316
     35 H10         3.2856    3.6469   -0.0095 H         1 <1>         0.1441
     36 H11        -1.3407   -1.6350    0.0045 H         1 <1>         0.3073
     37 H12        10.5093    0.1817    0.8765 H         1 <1>         0.1226
     38 H13         9.0171   -0.7922    1.0581 H         1 <1>         0.0906
     39 H14         9.1958    0.7465    1.9416 H         1 <1>         0.0906
     40 H15        -1.1378    3.6231    0.0801 H         1 <1>         0.2822
     41 H16        -2.5952    2.6667    0.0886 H         1 <1>         0.2766
@<TRIPOS>BOND
     1    1    2 ar
     2    1    3 ar
     3    2    4 ar
     4    3    5 ar
     5    4   13 ar
     6    5   13 ar
     7    6    8 ar
     8    6   14 ar
     9    7    9 ar
    10    7   14 ar
    11    8   16 ar
    12    9   16 ar
    13   10   15 ar
    14   10   17 ar
    15   11   21 ar
    16   11   22 ar
    17   12   15 ar
    18   12   18 ar
    19   12   19 ar
    20   13   15 1
    21   14   17 1
    22   16   25 1
    23   17   23 ar
    24   18   21 ar
    25   18   23 ar
    26   19   22 ar
    27   19   24 1
    28   20   25 1
    29    1   26 1
    30    2   27 1
    31    3   28 1
    32    4   29 1
    33    5   30 1
    34    6   31 1
    35    7   32 1
    36    8   33 1
    37    9   34 1
    38   10   35 1
    39   11   36 1
    40   20   37 1
    41   20   38 1
    42   20   39 1
    43   24   40 1
    44   24   41 1
@<TRIPOS>Similarity
1.3910
@<TRIPOS>ShapeSim
0.9102
@<TRIPOS>PharmSim
0.4808
# END
# Name:		AK-820/13220581
# Created and modified by SHAFTS on Mon Jul  5 00:36:42 2010

# 

@<TRIPOS>MOLECULE
AK-820/13220581
   51    55     0
SMALL
USER_CHARGE


@<TRIPOS>ATOM
      1 C1         -1.0636   -3.0356   -0.0062 C.ar      1 <1>        -0.1054
      2 C2         -1.2267   -2.1209   -1.0464 C.ar      1 <1>        -0.1017
      3 C3         -0.1757   -2.7588    1.0335 C.ar      1 <1>        -0.0987
      4 C4         -0.5018   -0.9292   -1.0472 C.ar      1 <1>        -0.0821
      5 C5          0.5491   -1.5670    1.0326 C.ar      1 <1>        -0.0766
      6 C6          5.4049    1.8845   -1.0857 C.ar      1 <1>        -0.0617
      7 C7         -0.5954    4.4446   -0.5743 C.ar      1 <1>        -0.0879
      8 C8          1.3042    5.3372    0.6222 C.ar      1 <1>        -0.0780
      9 C9          6.7884    1.7033   -1.1006 C.ar      1 <1>        -0.0408
     10 C10        -1.1956    5.7036   -0.5609 C.ar      1 <1>        -0.0671
     11 C11         0.7041    6.5963    0.6356 C.ar      1 <1>        -0.0543
     12 C12         5.2631    0.6829    1.0075 C.ar      1 <1>        -0.0341
     13 C13         0.4918    1.8081    0.0030 C.ar      1 <1>        -0.0409
     14 C14         2.6629    2.8430   -0.0079 C.ar      1 <1>        -0.0399
     15 C15         0.6545    4.2613    0.0173 C.ar      1 <1>        -0.0713
     16 C16         0.3861   -0.6522   -0.0077 C.ar      1 <1>        -0.0382
     17 C17         4.6434    1.3746   -0.0334 C.ar      1 <1>        -0.0233
     18 C18         1.2771    2.9556    0.0033 C.ar      1 <1>        -0.0628
     19 C19         6.6461    0.4929    0.9839 C.ar      1 <1>        -0.0101
     20 C20         7.4078    0.9979   -0.0686 C.ar      1 <1>         0.0303
     21 C21        -0.5458    6.7795    0.0441 C.ar      1 <1>        -0.0132
     22 C22         1.1361    0.5815   -0.0087 C.ar      1 <1>        -0.0130
     23 C23         3.2099    1.5701   -0.0190 C.ar      1 <1>        -0.0097
     24 C24         8.6223   -0.4484    2.0197 C.2       1 <1>         0.1215
     25 C25         9.2946   -0.1487    0.6909 C.3       1 <1>         0.1397
     26 C26        -2.4094    8.1247   -0.5670 C.3       1 <1>         0.0243
     27 N1          2.4796    0.4323   -0.0198 N.ar      1 <1>        -0.3731
     28 N2          7.2754   -0.1690    2.0432 N.am      1 <1>        -0.3066
     29 O1          9.2308   -0.9667    2.9536 O.2       1 <1>        -0.4721
     30 O2          8.7696    0.8918   -0.1109 O.3       1 <1>        -0.3773
     31 O3         -1.1313    8.0080    0.0565 O.3       1 <1>        -0.4171
     32 H1         -1.6293   -3.9627   -0.0049 H         1 <1>         0.1184
     33 H2         -1.9192   -2.3356   -1.8550 H         1 <1>         0.1179
     34 H3         -0.0493   -3.4699    1.8444 H         1 <1>         0.1176
     35 H4         -0.6402   -0.2260   -1.8652 H         1 <1>         0.1247
     36 H5          1.2371   -1.3645    1.8501 H         1 <1>         0.1363
     37 H6          4.9349    2.4312   -1.8999 H         1 <1>         0.1408
     38 H7         -1.1144    3.6157   -1.0499 H         1 <1>         0.1334
     39 H8          2.2788    5.2105    1.0875 H         1 <1>         0.1399
     40 H9          7.3749    2.1135   -1.9182 H         1 <1>         0.1479
     41 H10        -2.1692    5.8403   -1.0235 H         1 <1>         0.1147
     42 H11         1.2150    7.4308    1.1081 H         1 <1>         0.1320
     43 H12         4.6740    0.2930    1.8352 H         1 <1>         0.1556
     44 H13        -0.5930    1.8713    0.0128 H         1 <1>         0.1360
     45 H14         3.2963    3.7258   -0.0091 H         1 <1>         0.1381
     46 H15        10.3388    0.1072    0.9026 H         1 <1>         0.1622
     47 H16         9.2981   -1.0739    0.1018 H         1 <1>         0.1954
     48 H17        -2.7623    9.1556   -0.4858 H         1 <1>         0.0899
     49 H18        -3.1160    7.4471   -0.0812 H         1 <1>         0.1228
     50 H19        -2.3161    7.8559   -1.6218 H         1 <1>         0.0899
     51 H20         6.7238   -0.4326    2.8542 H         1 <1>         0.3282
@<TRIPOS>BOND
     1    1    2 ar
     2    1    3 ar
     3    2    4 ar
     4    3    5 ar
     5    4   16 ar
     6    5   16 ar
     7    6    9 ar
     8    6   17 ar
     9    7   10 ar
    10    7   15 ar
    11    8   11 ar
    12    8   15 ar
    13    9   20 ar
    14   10   21 ar
    15   11   21 ar
    16   12   17 ar
    17   12   19 ar
    18   13   18 ar
    19   13   22 ar
    20   14   18 ar
    21   14   23 ar
    22   15   18 1
    23   16   22 1
    24   17   23 1
    25   19   20 ar
    26   19   28 1
    27   20   30 1
    28   21   31 1
    29   22   27 ar
    30   23   27 ar
    31   24   25 1
    32   24   28 am
    33   24   29 2
    34   25   30 1
    35   26   31 1
    36    1   32 1
    37    2   33 1
    38    3   34 1
    39    4   35 1
    40    5   36 1
    41    6   37 1
    42    7   38 1
    43    8   39 1
    44    9   40 1
    45   10   41 1
    46   11   42 1
    47   12   43 1
    48   13   44 1
    49   14   45 1
    50   25   46 1
    51   25   47 1
    52   26   48 1
    53   26   49 1
    54   26   50 1
    55   28   51 1
@<TRIPOS>Similarity
1.3901
@<TRIPOS>ShapeSim
0.8613
@<TRIPOS>PharmSim
0.5288
# END
# Name:		AP-501/42284036
# Created and modified by SHAFTS on Mon Jul  5 00:36:42 2010

# 

@<TRIPOS>MOLECULE
AP-501/42284036
   38    41     0
SMALL
USER_CHARGE


@<TRIPOS>ATOM
      1 C1         -1.1708    6.4036   -0.5641 C.ar      1 <1>        -0.0942
      2 C2         -0.1646    7.1613    0.0350 C.ar      1 <1>        -0.0985
      3 C3         -1.0880    5.0111   -0.5660 C.ar      1 <1>        -0.0580
      4 C4          5.2514    0.1250    0.3742 C.ar      1 <1>        -0.0543
      5 C5          5.4315    2.3949   -0.4333 C.ar      1 <1>        -0.0608
      6 C6          0.9244    6.5266    0.6323 C.ar      1 <1>        -0.0578
      7 C7          6.6415    0.0110    0.3641 C.ar      1 <1>        -0.0414
      8 C8          6.8217    2.2810   -0.4433 C.ar      1 <1>        -0.0530
      9 C9          0.0011    4.3764    0.0312 C.ar      1 <1>         0.0510
     10 C10         4.6463    1.3169   -0.0246 C.ar      1 <1>         0.0047
     11 C11         7.4267    1.0891   -0.0446 C.ar      1 <1>        -0.0027
     12 C12         1.0074    5.1342    0.6304 C.ar      1 <1>         0.0300
     13 C13         0.0680    2.9332    0.0184 C.2       1 <1>         0.1194
     14 C14         0.8538    0.9259   -0.0034 C.2       1 <1>         0.1506
     15 C15         3.2053    1.4352   -0.0142 C.2       1 <1>         0.1207
     16 C16         9.3359   -0.2685    0.3651 C.3       1 <1>         0.0276
     17 C17         3.0575    5.4017    1.8055 C.3       1 <1>         0.0317
     18 N1         -0.9506    2.0892    0.0174 N.2       1 <1>        -0.2225
     19 N2         -0.4407    0.7902    0.0033 N.2       1 <1>        -0.2352
     20 N3          2.5302    2.5576    0.0000 N.2       1 <1>        -0.2782
     21 N4          1.2237    2.2223    0.0053 N.pl3     1 <1>        -0.2256
     22 O1          8.7831    0.9782   -0.0546 O.3       1 <1>        -0.4109
     23 O2          2.0836    4.5403    1.2210 O.3       1 <1>        -0.3982
     24 S1          2.2337   -0.0746   -0.0204 S.3       1 <1>         0.0463
     25 H1         -2.0185    6.8979   -1.0301 H         1 <1>         0.1169
     26 H2         -0.2295    8.2455    0.0369 H         1 <1>         0.1336
     27 H3         -1.8813    4.4359   -1.0369 H         1 <1>         0.1477
     28 H4          4.6498   -0.7216    0.6949 H         1 <1>         0.1532
     29 H5          4.9698    3.3281   -0.7457 H         1 <1>         0.1549
     30 H6          1.7045    7.1229    1.0975 H         1 <1>         0.1194
     31 H7          7.1069   -0.9200    0.6757 H         1 <1>         0.1426
     32 H8          7.4282    3.1240   -0.7630 H         1 <1>         0.1237
     33 H9         10.4262   -0.2218    0.3091 H         1 <1>         0.0925
     34 H10         8.9614   -1.0690   -0.2779 H         1 <1>         0.0925
     35 H11         9.0343   -0.4616    1.3972 H         1 <1>         0.1251
     36 H12         3.8609    4.8023    2.2408 H         1 <1>         0.0909
     37 H13         2.5864    6.0149    2.5779 H         1 <1>         0.0909
     38 H14         3.4698    6.0506    1.0291 H         1 <1>         0.1256
@<TRIPOS>BOND
     1    1    2 ar
     2    1    3 ar
     3    2    6 ar
     4    3    9 ar
     5    4    7 ar
     6    4   10 ar
     7    5    8 ar
     8    5   10 ar
     9    6   12 ar
    10    7   11 ar
    11    8   11 ar
    12    9   12 ar
    13    9   13 1
    14   10   15 1
    15   11   22 1
    16   12   23 1
    17   13   18 2
    18   13   21 1
    19   14   19 2
    20   14   21 1
    21   14   24 1
    22   15   20 2
    23   15   24 1
    24   16   22 1
    25   17   23 1
    26   18   19 1
    27   20   21 1
    28    1   25 1
    29    2   26 1
    30    3   27 1
    31    4   28 1
    32    5   29 1
    33    6   30 1
    34    7   31 1
    35    8   32 1
    36   16   33 1
    37   16   34 1
    38   16   35 1
    39   17   36 1
    40   17   37 1
    41   17   38 1
@<TRIPOS>Similarity
1.3892
@<TRIPOS>ShapeSim
0.8800
@<TRIPOS>PharmSim
0.5092
# END
# Name:		AS-980/15246972
# Created and modified by SHAFTS on Mon Jul  5 00:36:42 2010

# 

@<TRIPOS>MOLECULE
AS-980/15246972
   40    43     0
SMALL
USER_CHARGE


@<TRIPOS>ATOM
      1 C1         -0.6483    6.9210    0.0442 C.ar      1 <1>        -0.1026
      2 C2          7.4049    1.1275   -0.0630 C.ar      1 <1>        -0.1012
      3 C3         -0.2619    6.3272    1.2457 C.ar      1 <1>        -0.0975
      4 C4         -0.2831    6.3398   -1.1702 C.ar      1 <1>        -0.0965
      5 C5          6.4827    0.2754    0.5446 C.ar      1 <1>        -0.0923
      6 C6          6.9730    2.3139   -0.6559 C.ar      1 <1>        -0.0911
      7 C7          0.4898    5.1522    1.2329 C.ar      1 <1>        -0.0750
      8 C8          0.4686    5.1649   -1.1829 C.ar      1 <1>        -0.0739
      9 C9          5.1286    0.6099    0.5594 C.ar      1 <1>        -0.0531
     10 C10         5.6189    2.6483   -0.6411 C.ar      1 <1>        -0.0516
     11 C11        -0.0714   -0.0172    0.0022 C.ar      1 <1>        -0.0579
     12 C12         1.1490    2.0335    0.0022 C.ar      1 <1>         0.0231
     13 C13         0.8551    4.5711    0.0186 C.ar      1 <1>        -0.0265
     14 C14        -0.0883    1.3776    0.0102 C.ar      1 <1>        -0.0798
     15 C15         4.6967    1.7963   -0.0335 C.ar      1 <1>         0.0022
     16 C16         1.6318    3.3573    0.0051 C.2       1 <1>         0.0402
     17 C17         1.1538   -0.6753   -0.0132 C.ar      1 <1>        -0.0415
     18 C18         2.2963    1.2557   -0.0131 C.ar      1 <1>         0.0521
     19 C19        -1.4015    2.0879    0.0265 C.3       1 <1>        -0.0261
     20 C20         1.1557   -2.1707   -0.0210 C.3       1 <1>         0.0007
     21 N1          2.9673    3.4218   -0.0074 N.2       1 <1>        -0.2832
     22 N2          2.3743   -0.0864   -0.0215 N.ar      1 <1>        -0.3615
     23 N3          3.3428    2.1300   -0.0181 N.pl3     1 <1>        -0.2499
     24 H1         -1.2344    7.8352    0.0540 H         1 <1>         0.1215
     25 H2          8.4595    0.8684   -0.0733 H         1 <1>         0.1197
     26 H3         -0.5471    6.7787    2.1913 H         1 <1>         0.1212
     27 H4         -0.5852    6.8017   -2.1054 H         1 <1>         0.1211
     28 H5          6.8189   -0.6477    1.0075 H         1 <1>         0.1262
     29 H6          7.6919    2.9776   -1.1278 H         1 <1>         0.1275
     30 H7          0.7834    4.7013    2.1781 H         1 <1>         0.1315
     31 H8          0.7452    4.7243   -2.1380 H         1 <1>         0.1311
     32 H9          4.4204   -0.0626    1.0372 H         1 <1>         0.1346
     33 H10         5.2959    3.5765   -1.1063 H         1 <1>         0.1373
     34 H11        -1.0011   -0.5795    0.0067 H         1 <1>         0.1278
     35 H12        -1.7265    2.2629    1.0588 H         1 <1>         0.0704
     36 H13        -1.3361    3.0547   -0.4878 H         1 <1>         0.0644
     37 H14        -2.1746    1.5042   -0.4890 H         1 <1>         0.0677
     38 H15         1.1461   -2.5431   -1.0511 H         1 <1>         0.0819
     39 H16         2.0424   -2.5667    0.4875 H         1 <1>         0.0799
     40 H17         0.2797   -2.5688    0.5047 H         1 <1>         0.0790
@<TRIPOS>BOND
     1    1    3 ar
     2    1    4 ar
     3    2    5 ar
     4    2    6 ar
     5    3    7 ar
     6    4    8 ar
     7    5    9 ar
     8    6   10 ar
     9    7   13 ar
    10    8   13 ar
    11    9   15 ar
    12   10   15 ar
    13   11   14 ar
    14   11   17 ar
    15   12   14 ar
    16   12   16 1
    17   12   18 ar
    18   13   16 1
    19   14   19 1
    20   15   23 1
    21   16   21 2
    22   17   20 1
    23   17   22 ar
    24   18   22 ar
    25   18   23 1
    26   21   23 1
    27    1   24 1
    28    2   25 1
    29    3   26 1
    30    4   27 1
    31    5   28 1
    32    6   29 1
    33    7   30 1
    34    8   31 1
    35    9   32 1
    36   10   33 1
    37   11   34 1
    38   19   35 1
    39   19   36 1
    40   19   37 1
    41   20   38 1
    42   20   39 1
    43   20   40 1
@<TRIPOS>Similarity
1.3892
@<TRIPOS>ShapeSim
0.9052
@<TRIPOS>PharmSim
0.4840
# END
# Name:		AN-689/41741336
# Created and modified by SHAFTS on Mon Jul  5 00:36:42 2010

# 

@<TRIPOS>MOLECULE
AN-689/41741336
   39    41     0
SMALL
USER_CHARGE


@<TRIPOS>ATOM
      1 C1          5.3335    0.9976    1.0057 C.ar      1 <1>        -0.0463
      2 C2          5.7569    2.0186   -1.1426 C.ar      1 <1>        -0.0529
      3 C3         -0.1915    4.8100   -1.0010 C.ar      1 <1>        -0.0337
      4 C4          0.8990    5.5642    1.0187 C.ar      1 <1>        -0.0364
      5 C5          6.6467    0.5286    1.0416 C.ar      1 <1>        -0.0385
      6 C6          7.0701    1.5497   -1.1067 C.ar      1 <1>        -0.0491
      7 C7         -1.0680    5.8929   -0.9322 C.ar      1 <1>         0.0189
      8 C8          0.0226    6.6471    1.0875 C.ar      1 <1>         0.0169
      9 C9          4.8886    1.7425   -0.0865 C.ar      1 <1>        -0.0022
     10 C10         0.7920    4.6456   -0.0256 C.ar      1 <1>         0.0099
     11 C11         7.5150    0.8047   -0.0145 C.ar      1 <1>        -0.0015
     12 C12        -0.9609    6.8115    0.1121 C.ar      1 <1>         0.2993
     13 C13         2.4686    1.3727   -0.0852 C.2       1 <1>         0.3139
     14 C14         1.2442    2.2403   -0.0674 C.2       1 <1>         0.3138
     15 C15         3.0993    3.5631   -0.2049 C.2       1 <1>         0.0817
     16 C16         9.1851   -0.4081    1.1668 C.3       1 <1>         0.0270
     17 N1          3.5441    2.2227   -0.1234 N.am      1 <1>        -0.2011
     18 N2          1.6892    3.5370   -0.0959 N.am      1 <1>        -0.1949
     19 N3         -3.0202    7.8957   -1.1875 N.pl3     1 <1>        -0.1563
     20 O1          2.3630    0.1642   -0.0201 O.2       1 <1>        -0.3494
     21 O2          0.1402    1.7396    0.0118 O.2       1 <1>        -0.3503
     22 O3         -2.8886    8.0107    1.3845 O.2       1 <1>        -0.0810
     23 O4         -1.2958    9.3923    0.0055 O.2       1 <1>        -0.0810
     24 O5          8.7964    0.3472    0.0205 O.3       1 <1>        -0.4115
     25 S1          4.0454    4.9071   -0.5818 S.2       1 <1>        -0.1876
     26 S2         -2.0583    8.1667    0.1984 S.o2      1 <1>        -0.0623
     27 H1          4.6655    0.7766    1.8343 H         1 <1>         0.1521
     28 H2          5.4212    2.5982   -1.9989 H         1 <1>         0.1515
     29 H3         -0.2842    4.1002   -1.8192 H         1 <1>         0.1534
     30 H4          1.6617    5.4462    1.7843 H         1 <1>         0.1488
     31 H5          6.9875   -0.0512    1.8951 H         1 <1>         0.1440
     32 H6          7.7418    1.7680   -1.9325 H         1 <1>         0.1277
     33 H7         -1.8306    6.0114   -1.6972 H         1 <1>         0.1683
     34 H8          0.1148    7.3569    1.9053 H         1 <1>         0.1675
     35 H9         10.2301   -0.7115    1.0670 H         1 <1>         0.0925
     36 H10         8.5456   -1.2898    1.2574 H         1 <1>         0.0915
     37 H11         9.0723    0.2144    2.0577 H         1 <1>         0.1247
     38 H12        -3.9888    7.5833   -1.0482 H         1 <1>         0.3206
     39 H13        -2.8985    8.5261   -1.9894 H         1 <1>         0.3243
@<TRIPOS>BOND
     1    1    5 ar
     2    1    9 ar
     3    2    6 ar
     4    2    9 ar
     5    3    7 ar
     6    3   10 ar
     7    4    8 ar
     8    4   10 ar
     9    5   11 ar
    10    6   11 ar
    11    7   12 ar
    12    8   12 ar
    13    9   17 1
    14   10   18 1
    15   11   24 1
    16   12   26 1
    17   13   14 1
    18   13   17 am
    19   13   20 2
    20   14   18 am
    21   14   21 2
    22   15   17 1
    23   15   18 1
    24   15   25 2
    25   16   24 1
    26   19   26 1
    27   22   26 2
    28   23   26 2
    29    1   27 1
    30    2   28 1
    31    3   29 1
    32    4   30 1
    33    5   31 1
    34    6   32 1
    35    7   33 1
    36    8   34 1
    37   16   35 1
    38   16   36 1
    39   16   37 1
    40   19   38 1
    41   19   39 1
@<TRIPOS>Similarity
1.3884
@<TRIPOS>ShapeSim
0.9039
@<TRIPOS>PharmSim
0.4845
# END
# Name:		AO-365/43113663
# Created and modified by SHAFTS on Mon Jul  5 00:36:42 2010

# 

@<TRIPOS>MOLECULE
AO-365/43113663
   37    40     0
SMALL
USER_CHARGE


@<TRIPOS>ATOM
      1 C1          1.0279    6.4506    0.6325 C.ar      1 <1>        -0.0787
      2 C2          1.0777    5.0568    0.6240 C.ar      1 <1>        -0.0544
      3 C3          5.2588    0.0228    0.3679 C.ar      1 <1>        -0.0541
      4 C4          5.4612    2.2886   -0.4455 C.ar      1 <1>        -0.0604
      5 C5          6.6476   -0.1057    0.3558 C.ar      1 <1>        -0.0403
      6 C6          6.8501    2.1603   -0.4576 C.ar      1 <1>        -0.0518
      7 C7         -0.0470    7.1138    0.0405 C.ar      1 <1>        -0.0669
      8 C8         -1.0223    4.9890   -0.5687 C.ar      1 <1>        -0.0359
      9 C9          0.0526    4.3258    0.0234 C.ar      1 <1>         0.0161
     10 C10         4.6654    1.2199   -0.0328 C.ar      1 <1>         0.0056
     11 C11         7.4433    0.9630   -0.0570 C.ar      1 <1>        -0.0002
     12 C12        -1.0721    6.3830   -0.5601 C.ar      1 <1>        -0.0049
     13 C13         0.1044    2.8840    0.0141 C.2       1 <1>         0.1124
     14 C14         0.8692    0.8686   -0.0041 C.2       1 <1>         0.1545
     15 C15         3.2257    1.3534   -0.0202 C.2       1 <1>         0.1234
     16 C16         9.0331    0.4520    2.2827 C.3       1 <1>        -0.0337
     17 C17         9.3781   -0.0413    0.8936 C.3       1 <1>         0.0175
     18 N1         -0.9230    2.0507    0.0170 N.2       1 <1>        -0.2279
     19 N2         -0.4267    0.7465    0.0052 N.2       1 <1>        -0.2353
     20 N3          2.5625    2.4828   -0.0075 N.2       1 <1>        -0.2767
     21 N4          1.2525    2.1611    0.0008 N.pl3     1 <1>        -0.2244
     22 O1          8.7985    0.8380   -0.0691 O.3       1 <1>        -0.4100
     23 S1          2.2385   -0.1463   -0.0208 S.3       1 <1>         0.0519
     24 Cl1        -2.3971    7.2027   -1.2912 Cl        1 <1>        -0.1387
     25 H1          1.8256    7.0200    1.1006 H         1 <1>         0.1392
     26 H2          1.9220    4.5542    1.0902 H         1 <1>         0.1524
     27 H3          4.6490   -0.8168    0.6918 H         1 <1>         0.1534
     28 H4          5.0086    3.2259   -0.7594 H         1 <1>         0.1556
     29 H5          7.1037   -1.0409    0.6689 H         1 <1>         0.1431
     30 H6          7.4647    2.9962   -0.7805 H         1 <1>         0.1237
     31 H7         -0.0728    8.2004    0.0548 H         1 <1>         0.1418
     32 H8         -1.8226    4.4198   -1.0380 H         1 <1>         0.1499
     33 H9          9.4266    1.4588    2.4481 H         1 <1>         0.0588
     34 H10         7.9480    0.4682    2.4282 H         1 <1>         0.0491
     35 H11         9.4463   -0.2183    3.0437 H         1 <1>         0.0491
     36 H12         8.9816   -1.0485    0.7346 H         1 <1>         0.0983
     37 H13        10.4625   -0.0561    0.7497 H         1 <1>         0.0983
@<TRIPOS>BOND
     1    1    2 ar
     2    1    7 ar
     3    2    9 ar
     4    3    5 ar
     5    3   10 ar
     6    4    6 ar
     7    4   10 ar
     8    5   11 ar
     9    6   11 ar
    10    7   12 ar
    11    8    9 ar
    12    8   12 ar
    13    9   13 1
    14   10   15 1
    15   11   22 1
    16   12   24 1
    17   13   18 2
    18   13   21 1
    19   14   19 2
    20   14   21 1
    21   14   23 1
    22   15   20 2
    23   15   23 1
    24   16   17 1
    25   17   22 1
    26   18   19 1
    27   20   21 1
    28    1   25 1
    29    2   26 1
    30    3   27 1
    31    4   28 1
    32    5   29 1
    33    6   30 1
    34    7   31 1
    35    8   32 1
    36   16   33 1
    37   16   34 1
    38   16   35 1
    39   17   36 1
    40   17   37 1
@<TRIPOS>Similarity
1.3884
@<TRIPOS>ShapeSim
0.8887
@<TRIPOS>PharmSim
0.4997
# END
# Name:		AM-807/14956055
# Created and modified by SHAFTS on Mon Jul  5 00:36:42 2010

# 

@<TRIPOS>MOLECULE
AM-807/14956055
   38    41     0
SMALL
USER_CHARGE


@<TRIPOS>ATOM
      1 C1         -1.9637   -0.6115    0.0028 C.1       1 <1>         0.0774
      2 C2          7.3388    2.1318   -0.4365 C.2       1 <1>        -0.1016
      3 C3          0.5210    4.8164   -1.1891 C.ar      1 <1>        -0.0866
      4 C4          0.5565    4.7932    1.2265 C.ar      1 <1>        -0.0770
      5 C5         -0.1775    6.0234   -1.1673 C.ar      1 <1>        -0.0653
      6 C6         -0.1421    6.0005    1.2483 C.ar      1 <1>        -0.0530
      7 C7          5.9901    2.5543   -0.6171 C.2       1 <1>        -0.0819
      8 C8          3.0024    2.9442   -0.0349 C.ar      1 <1>        -0.0169
      9 C9          7.4196    0.9315    0.2346 C.2       1 <1>        -0.0430
     10 C10        -0.6883    0.0292   -0.0095 C.2       1 <1>         0.1460
     11 C11         0.9258    1.7196   -0.0164 C.ar      1 <1>         0.0188
     12 C12         0.8880    4.2012    0.0078 C.ar      1 <1>        -0.0638
     13 C13         1.6113    2.9515   -0.0146 C.ar      1 <1>        -0.0387
     14 C14        -0.4671    1.3889    0.0003 C.2       1 <1>        -0.0254
     15 C15        -0.5091    6.6155    0.0513 C.ar      1 <1>        -0.0118
     16 C16         3.6517    1.7226   -0.0559 C.ar      1 <1>         0.0157
     17 C17         5.0913    1.6605   -0.0773 C.2       1 <1>         0.0169
     18 C18         1.7061    0.5682   -0.0387 C.ar      1 <1>         0.0723
     19 C19        -1.5334    8.3679   -1.1880 C.3       1 <1>         0.0253
     20 N1         -3.0007   -1.1324    0.0129 N.1       1 <1>        -0.3662
     21 N2          3.0543    0.5117   -0.0588 N.ar      1 <1>        -0.3400
     22 N3         -1.4718    2.3022    0.0232 N.pl3     1 <1>        -0.4024
     23 O1         -1.1901    7.7936    0.0723 O.3       1 <1>        -0.4156
     24 S1          5.8738    0.3189    0.6438 S.3       1 <1>        -0.1160
     25 S2          0.7725   -0.8588   -0.0389 S.3       1 <1>        -0.0065
     26 H1          8.2058    2.6798   -0.7815 H         1 <1>         0.1174
     27 H2          0.7722    4.3672   -2.1470 H         1 <1>         0.1374
     28 H3          0.8354    4.3263    2.1680 H         1 <1>         0.1435
     29 H4         -0.4605    6.4980   -2.1030 H         1 <1>         0.1169
     30 H5         -0.3975    6.4571    2.2006 H         1 <1>         0.1326
     31 H6          5.7019    3.4690   -1.1204 H         1 <1>         0.1377
     32 H7          3.5633    3.8754   -0.0341 H         1 <1>         0.1474
     33 H8          8.3124    0.3849    0.5036 H         1 <1>         0.1728
     34 H9         -2.0735    9.3042   -1.0275 H         1 <1>         0.1235
     35 H10        -2.1557    7.6678   -1.7510 H         1 <1>         0.0909
     36 H11        -0.6173    8.5696   -1.7480 H         1 <1>         0.0906
     37 H12        -2.4585    2.0212   -0.0131 H         1 <1>         0.2650
     38 H13        -1.2856    3.3110   -0.0176 H         1 <1>         0.2636
@<TRIPOS>BOND
     1    1   10 1
     2    1   20 3
     3    2    7 1
     4    2    9 2
     5    3    5 ar
     6    3   12 ar
     7    4    6 ar
     8    4   12 ar
     9    5   15 ar
    10    6   15 ar
    11    7   17 2
    12    8   13 ar
    13    8   16 ar
    14    9   24 1
    15   10   14 2
    16   10   25 1
    17   11   13 ar
    18   11   14 1
    19   11   18 ar
    20   12   13 1
    21   14   22 1
    22   15   23 1
    23   16   17 1
    24   16   21 ar
    25   17   24 1
    26   18   21 ar
    27   18   25 1
    28   19   23 1
    29    2   26 1
    30    3   27 1
    31    4   28 1
    32    5   29 1
    33    6   30 1
    34    7   31 1
    35    8   32 1
    36    9   33 1
    37   19   34 1
    38   19   35 1
    39   19   36 1
    40   22   37 1
    41   22   38 1
@<TRIPOS>Similarity
1.3881
@<TRIPOS>ShapeSim
0.9035
@<TRIPOS>PharmSim
0.4846
# END
# Name:		AO-365/43301310
# Created and modified by SHAFTS on Mon Jul  5 00:36:42 2010

# 

@<TRIPOS>MOLECULE
AO-365/43301310
   40    43     0
SMALL
USER_CHARGE


@<TRIPOS>ATOM
      1 C1          1.0283    6.4499    0.6328 C.ar      1 <1>        -0.0941
      2 C2          1.0772    5.0559    0.6249 C.ar      1 <1>        -0.0679
      3 C3          5.2586    0.0235    0.3683 C.ar      1 <1>        -0.0542
      4 C4          5.4608    2.2896   -0.4448 C.ar      1 <1>        -0.0607
      5 C5         -0.0459    7.1135    0.0400 C.ar      1 <1>        -0.0985
      6 C6          6.6475   -0.1048    0.3563 C.ar      1 <1>        -0.0405
      7 C7          6.8497    2.1613   -0.4568 C.ar      1 <1>        -0.0522
      8 C8         -1.0222    4.9892   -0.5690 C.ar      1 <1>        -0.0618
      9 C9          0.0520    4.3255    0.0238 C.ar      1 <1>         0.0071
     10 C10         4.6653    1.2206   -0.0323 C.ar      1 <1>         0.0051
     11 C11        -1.0711    6.3832   -0.5610 C.ar      1 <1>        -0.1041
     12 C12         7.4432    0.9641   -0.0562 C.ar      1 <1>        -0.0006
     13 C13         0.1040    2.8841    0.0145 C.2       1 <1>         0.1095
     14 C14         0.8690    0.8688   -0.0039 C.2       1 <1>         0.1522
     15 C15         3.2255    1.3539   -0.0198 C.2       1 <1>         0.1223
     16 C16        -2.2184    7.0933   -1.1963 C.3       1 <1>        -0.0406
     17 C17         9.0328    0.4530    2.2834 C.3       1 <1>        -0.0337
     18 C18         9.3779   -0.0400    0.8944 C.3       1 <1>         0.0173
     19 N1         -0.9233    2.0506    0.0170 N.2       1 <1>        -0.2303
     20 N2         -0.4269    0.7465    0.0052 N.2       1 <1>        -0.2378
     21 N3          2.5621    2.4832   -0.0071 N.2       1 <1>        -0.2765
     22 N4          1.2522    2.1613    0.0011 N.pl3     1 <1>        -0.2248
     23 O1          8.7984    0.8393   -0.0683 O.3       1 <1>        -0.4102
     24 S1          2.2385   -0.1459   -0.0208 S.3       1 <1>         0.0490
     25 H1          1.8259    7.0191    1.1011 H         1 <1>         0.1233
     26 H2          1.9212    4.5537    1.0917 H         1 <1>         0.1326
     27 H3          4.6490   -0.8161    0.6920 H         1 <1>         0.1532
     28 H4          5.0082    3.2267   -0.7586 H         1 <1>         0.1551
     29 H5         -0.0756    8.1997    0.0511 H         1 <1>         0.1259
     30 H6          7.1038   -1.0399    0.6693 H         1 <1>         0.1429
     31 H7          7.4643    2.9974   -0.7795 H         1 <1>         0.1235
     32 H8         -1.8248    4.4253   -1.0402 H         1 <1>         0.1448
     33 H9         -2.0040    7.2968   -2.2526 H         1 <1>         0.0587
     34 H10        -3.1383    6.4972   -1.1367 H         1 <1>         0.0566
     35 H11        -2.4248    8.0469   -0.6930 H         1 <1>         0.0559
     36 H12         9.4262    1.4598    2.4490 H         1 <1>         0.0587
     37 H13         7.9477    0.4690    2.4288 H         1 <1>         0.0491
     38 H14         9.4461   -0.2173    3.0444 H         1 <1>         0.0491
     39 H15         8.9817   -1.0474    0.7352 H         1 <1>         0.0982
     40 H16        10.4625   -0.0546    0.7505 H         1 <1>         0.0982
@<TRIPOS>BOND
     1    1    2 ar
     2    1    5 ar
     3    2    9 ar
     4    3    6 ar
     5    3   10 ar
     6    4    7 ar
     7    4   10 ar
     8    5   11 ar
     9    6   12 ar
    10    7   12 ar
    11    8    9 ar
    12    8   11 ar
    13    9   13 1
    14   10   15 1
    15   11   16 1
    16   12   23 1
    17   13   19 2
    18   13   22 1
    19   14   20 2
    20   14   22 1
    21   14   24 1
    22   15   21 2
    23   15   24 1
    24   17   18 1
    25   18   23 1
    26   19   20 1
    27   21   22 1
    28    1   25 1
    29    2   26 1
    30    3   27 1
    31    4   28 1
    32    5   29 1
    33    6   30 1
    34    7   31 1
    35    8   32 1
    36   16   33 1
    37   16   34 1
    38   16   35 1
    39   17   36 1
    40   17   37 1
    41   17   38 1
    42   18   39 1
    43   18   40 1
@<TRIPOS>Similarity
1.3876
@<TRIPOS>ShapeSim
0.8879
@<TRIPOS>PharmSim
0.4997
# END
# Name:		AE-848/30689062
# Created and modified by SHAFTS on Mon Jul  5 00:36:42 2010

# 

@<TRIPOS>MOLECULE
AE-848/30689062
   37    38     0
SMALL
USER_CHARGE


@<TRIPOS>ATOM
      1 C1          5.2777    2.3016   -0.3562 C.ar      1 <1>        -0.0796
      2 C2          5.2999   -0.0016    0.3732 C.ar      1 <1>        -0.0737
      3 C3          0.9328    4.9586    0.9203 C.ar      1 <1>        -0.0736
      4 C4         -0.1757    4.8037   -1.2208 C.ar      1 <1>        -0.0796
      5 C5          6.6696    2.2874   -0.4435 C.ar      1 <1>        -0.0633
      6 C6          6.6920   -0.0158    0.2859 C.ar      1 <1>        -0.0530
      7 C7          0.2530    6.1471    1.1863 C.ar      1 <1>        -0.0530
      8 C8         -0.8556    5.9923   -0.9548 C.ar      1 <1>        -0.0632
      9 C9          4.5927    1.1571    0.0522 C.ar      1 <1>        -0.0129
     10 C10         0.7185    4.2869   -0.2834 C.ar      1 <1>        -0.0129
     11 C11         7.3768    1.1288   -0.1226 C.ar      1 <1>        -0.0104
     12 C12        -0.6413    6.6639    0.2488 C.ar      1 <1>        -0.0104
     13 C13         3.1414    1.1716    0.1430 C.2       1 <1>         0.0923
     14 C14         1.4449    3.0163   -0.5679 C.2       1 <1>         0.0923
     15 C15         9.3947   -0.1031    0.1355 C.3       1 <1>         0.0261
     16 C16        -2.2041    8.2953   -0.4942 C.3       1 <1>         0.0261
     17 C17         2.4111    2.4827    0.4764 C.3       1 <1>         0.1210
     18 O1          2.4879    0.1228   -0.0215 O.2       1 <1>        -0.4466
     19 O2          1.2615    2.4544   -1.6448 O.2       1 <1>        -0.4466
     20 O3          8.7351    1.1148   -0.2074 O.3       1 <1>        -0.4138
     21 O4         -1.3046    7.8237    0.5080 O.3       1 <1>        -0.4138
     22 H1          4.7371    3.2102   -0.6093 H         1 <1>         0.1457
     23 H2          4.7756   -0.8987    0.6922 H         1 <1>         0.1457
     24 H3          1.6269    4.5652    1.6585 H         1 <1>         0.1457
     25 H4         -0.3499    4.2878   -2.1617 H         1 <1>         0.1457
     26 H5          7.1974    3.1822   -0.7621 H         1 <1>         0.1149
     27 H6          7.2375   -0.9211    0.5376 H         1 <1>         0.1313
     28 H7          0.4243    6.6657    2.1256 H         1 <1>         0.1313
     29 H8         -1.5508    6.3902   -1.6890 H         1 <1>         0.1149
     30 H9         10.4744    0.0227    0.0246 H         1 <1>         0.0913
     31 H10         9.0417   -0.9058   -0.5167 H         1 <1>         0.0913
     32 H11         9.1639   -0.3521    1.1741 H         1 <1>         0.1238
     33 H12        -2.6661    9.2277   -0.1605 H         1 <1>         0.0913
     34 H13        -2.9729    7.5409   -0.6791 H         1 <1>         0.0913
     35 H14        -1.6458    8.4774   -1.4156 H         1 <1>         0.1238
     36 H15         1.8578    2.2971    1.4035 H         1 <1>         0.1303
     37 H16         3.1694    3.2594    0.6249 H         1 <1>         0.1303
@<TRIPOS>BOND
     1    1    5 ar
     2    1    9 ar
     3    2    6 ar
     4    2    9 ar
     5    3    7 ar
     6    3   10 ar
     7    4    8 ar
     8    4   10 ar
     9    5   11 ar
    10    6   11 ar
    11    7   12 ar
    12    8   12 ar
    13    9   13 1
    14   10   14 1
    15   11   20 1
    16   12   21 1
    17   13   17 1
    18   13   18 2
    19   14   17 1
    20   14   19 2
    21   15   20 1
    22   16   21 1
    23    1   22 1
    24    2   23 1
    25    3   24 1
    26    4   25 1
    27    5   26 1
    28    6   27 1
    29    7   28 1
    30    8   29 1
    31   15   30 1
    32   15   31 1
    33   15   32 1
    34   16   33 1
    35   16   34 1
    36   16   35 1
    37   17   36 1
    38   17   37 1
@<TRIPOS>Similarity
1.3873
@<TRIPOS>ShapeSim
0.8387
@<TRIPOS>PharmSim
0.5487
# END
# Name:		AO-476/43250024
# Created and modified by SHAFTS on Mon Jul  5 00:36:42 2010

# 

@<TRIPOS>MOLECULE
AO-476/43250024
   44    47     0
SMALL
USER_CHARGE


@<TRIPOS>ATOM
      1 C1          5.6676    2.1452   -1.0867 C.ar      1 <1>        -0.0710
      2 C2          5.6545    0.9246    0.9982 C.ar      1 <1>        -0.0777
      3 C3          0.4510    4.6453   -1.1868 C.ar      1 <1>        -0.0884
      4 C4          0.4718    4.6295    1.2290 C.ar      1 <1>        -0.0753
      5 C5          7.0619    2.1086   -1.0994 C.ar      1 <1>        -0.0943
      6 C6          7.0489    0.8879    0.9855 C.ar      1 <1>        -0.0982
      7 C7         -0.1957    5.8810   -1.1732 C.ar      1 <1>        -0.0672
      8 C8         -0.1750    5.8652    1.2427 C.ar      1 <1>        -0.0519
      9 C9          2.8413    2.7910   -0.0110 C.ar      1 <1>        -0.0246
     10 C10        -0.3723   -0.9018   -0.0087 C.ar      1 <1>         0.0443
     11 C11         0.8186    1.4841   -0.0023 C.ar      1 <1>         0.0622
     12 C12         0.7849    4.0195    0.0144 C.ar      1 <1>        -0.0651
     13 C13         4.9639    1.5533   -0.0379 C.ar      1 <1>        -0.0260
     14 C14         1.4588    2.7321    0.0003 C.ar      1 <1>        -0.0365
     15 C15         7.7526    1.4800   -0.0634 C.ar      1 <1>        -0.1150
     16 C16        -0.5087    6.4910    0.0415 C.ar      1 <1>        -0.0129
     17 C17         3.5207    1.5914   -0.0247 C.ar      1 <1>         0.0091
     18 C18         1.5818    0.3108   -0.0170 C.ar      1 <1>         0.0556
     19 C19        -0.5669    1.3435    0.0089 C.ar      1 <1>         0.0064
     20 C20         9.2433    1.4409   -0.0769 C.3       1 <1>        -0.0415
     21 C21        -1.4508    8.2807   -1.2096 C.3       1 <1>         0.0253
     22 N1          0.9771   -0.8824   -0.0202 N.ar      1 <1>        -0.3288
     23 N2         -1.1953    0.1561    0.0062 N.ar      1 <1>        -0.3425
     24 N3          2.9202    0.3768   -0.0279 N.ar      1 <1>        -0.3300
     25 N4         -1.4285    2.4622    0.0238 N.pl3     1 <1>        -0.3666
     26 O1         -1.1393    7.6969    0.0546 O.3       1 <1>        -0.4156
     27 H1          5.1437    2.6397   -1.9013 H         1 <1>         0.1446
     28 H2          5.1202    0.4580    1.8224 H         1 <1>         0.1302
     29 H3          0.6885    4.1824   -2.1417 H         1 <1>         0.1359
     30 H4          0.7254    4.1545    2.1738 H         1 <1>         0.1455
     31 H5          7.6020    2.5734   -1.9200 H         1 <1>         0.1205
     32 H6          7.5788    0.3954    1.7965 H         1 <1>         0.1195
     33 H7         -0.4530    6.3637   -2.1121 H         1 <1>         0.1149
     34 H8         -0.4161    6.3359    2.1920 H         1 <1>         0.1315
     35 H9          3.3748    3.7374   -0.0098 H         1 <1>         0.1435
     36 H10        -0.8387   -1.8794   -0.0104 H         1 <1>         0.3074
     37 H11         9.6531    2.3178    0.4393 H         1 <1>         0.0589
     38 H12         9.6228    0.5374    0.4177 H         1 <1>         0.0548
     39 H13         9.6323    1.4282   -1.1034 H         1 <1>         0.0552
     40 H14        -1.9515    9.2397   -1.0555 H         1 <1>         0.1234
     41 H15        -2.0990    7.6056   -1.7739 H         1 <1>         0.0907
     42 H16        -0.5237    8.4414   -1.7651 H         1 <1>         0.0906
     43 H17        -1.0343    3.3789    0.0741 H         1 <1>         0.2821
     44 H18        -2.4152    2.3150    0.0791 H         1 <1>         0.2769
@<TRIPOS>BOND
     1    1    5 ar
     2    1   13 ar
     3    2    6 ar
     4    2   13 ar
     5    3    7 ar
     6    3   12 ar
     7    4    8 ar
     8    4   12 ar
     9    5   15 ar
    10    6   15 ar
    11    7   16 ar
    12    8   16 ar
    13    9   14 ar
    14    9   17 ar
    15   10   22 ar
    16   10   23 ar
    17   11   14 ar
    18   11   18 ar
    19   11   19 ar
    20   12   14 1
    21   13   17 1
    22   15   20 1
    23   16   26 1
    24   17   24 ar
    25   18   22 ar
    26   18   24 ar
    27   19   23 ar
    28   19   25 1
    29   21   26 1
    30    1   27 1
    31    2   28 1
    32    3   29 1
    33    4   30 1
    34    5   31 1
    35    6   32 1
    36    7   33 1
    37    8   34 1
    38    9   35 1
    39   10   36 1
    40   20   37 1
    41   20   38 1
    42   20   39 1
    43   21   40 1
    44   21   41 1
    45   21   42 1
    46   25   43 1
    47   25   44 1
@<TRIPOS>Similarity
1.3872
@<TRIPOS>ShapeSim
0.9199
@<TRIPOS>PharmSim
0.4673
# END
# Name:		AE-842/32631039
# Created and modified by SHAFTS on Mon Jul  5 00:36:42 2010

# 

@<TRIPOS>MOLECULE
AE-842/32631039
   44    46     0
SMALL
USER_CHARGE


@<TRIPOS>ATOM
      1 C1         -0.7166    6.7770    0.0445 C.ar      1 <1>        -0.1002
      2 C2         -0.8586    5.8706   -1.0061 C.ar      1 <1>        -0.0956
      3 C3          0.1765    6.5083    1.0817 C.ar      1 <1>        -0.0976
      4 C4         -0.1074    4.6954   -1.0195 C.ar      1 <1>        -0.0789
      5 C5          0.9276    5.3330    1.0683 C.ar      1 <1>        -0.0821
      6 C6          5.3323    0.5255    0.5570 C.ar      1 <1>        -0.0501
      7 C7          5.7123    2.5883   -0.6418 C.ar      1 <1>        -0.0527
      8 C8          6.7023    0.2644    0.5421 C.ar      1 <1>        -0.0352
      9 C9          7.0824    2.3273   -0.6568 C.ar      1 <1>        -0.0370
     10 C10         0.7857    4.4265    0.0178 C.ar      1 <1>        -0.0452
     11 C11         4.8372    1.6874   -0.0350 C.ar      1 <1>        -0.0295
     12 C12         1.1672    1.8924   -0.0023 C.2       1 <1>         0.1023
     13 C13         2.3406    1.0988   -0.0180 C.2       1 <1>         0.1006
     14 C14         7.5774    1.1653   -0.0648 C.ar      1 <1>         0.0708
     15 C15         1.5630    3.2117    0.0033 C.2       1 <1>        -0.0031
     16 C16         3.4178    1.9573   -0.0213 C.2       1 <1>         0.0011
     17 C17        -0.1977    1.4431    0.0062 C.2       1 <1>         0.1987
     18 C18         2.4315   -0.3355   -0.0285 C.2       1 <1>         0.1992
     19 C19        -1.6071   -0.4994    0.0020 C.3       1 <1>         0.0395
     20 C20         1.8670   -2.3300    1.1807 C.3       1 <1>         0.0398
     21 N1          2.9332    3.2391   -0.0080 N.pl3     1 <1>        -0.3278
     22 N2          8.9721    0.8994   -0.0802 N.pl3     1 <1>        -0.0475
     23 O1          9.3967   -0.1518    0.4578 O.3       1 <1>        -0.1544
     24 O2         -1.1985    2.1886    0.0201 O.2       1 <1>        -0.4328
     25 O3          2.9787   -1.0131   -0.9222 O.2       1 <1>        -0.4318
     26 O4          9.7421    1.7227   -0.6314 O.2       1 <1>        -0.2458
     27 O5         -0.2943    0.0719   -0.0039 O.3       1 <1>        -0.3457
     28 O6          1.8404   -0.9024    1.0755 O.3       1 <1>        -0.3458
     29 H1         -1.3011    7.6925    0.0545 H         1 <1>         0.1245
     30 H2         -1.5543    6.0800   -1.8135 H         1 <1>         0.1247
     31 H3          0.2878    7.2147    1.8992 H         1 <1>         0.1231
     32 H4         -0.2275    4.0001   -1.8469 H         1 <1>         0.1335
     33 H5          1.6188    5.1376    1.8847 H         1 <1>         0.1261
     34 H6          4.6632   -0.1866    1.0341 H         1 <1>         0.1565
     35 H7          5.3415    3.4978   -1.1088 H         1 <1>         0.1506
     36 H8          7.0750   -0.6454    1.0064 H         1 <1>         0.1706
     37 H9          7.7536    3.0368   -1.1344 H         1 <1>         0.1692
     38 H10        -1.5310   -1.5894   -0.0072 H         1 <1>         0.0983
     39 H11        -2.1593   -0.1545   -0.8758 H         1 <1>         0.0975
     40 H12        -2.1294   -0.1805    0.9071 H         1 <1>         0.1272
     41 H13         1.3643   -2.6376    2.1008 H         1 <1>         0.1280
     42 H14         2.9035   -2.6766    1.1856 H         1 <1>         0.0986
     43 H15         1.3453   -2.7594    0.3220 H         1 <1>         0.0984
     44 H16         3.4997    4.0768   -0.0071 H         1 <1>         0.3600
@<TRIPOS>BOND
     1    1    2 ar
     2    1    3 ar
     3    2    4 ar
     4    3    5 ar
     5    4   10 ar
     6    5   10 ar
     7    6    8 ar
     8    6   11 ar
     9    7    9 ar
    10    7   11 ar
    11    8   14 ar
    12    9   14 ar
    13   10   15 1
    14   11   16 1
    15   12   13 1
    16   12   15 2
    17   12   17 1
    18   13   16 2
    19   13   18 1
    20   14   22 1
    21   15   21 1
    22   16   21 1
    23   17   24 2
    24   17   27 1
    25   18   25 2
    26   18   28 1
    27   19   27 1
    28   20   28 1
    29   22   23 1
    30   22   26 2
    31    1   29 1
    32    2   30 1
    33    3   31 1
    34    4   32 1
    35    5   33 1
    36    6   34 1
    37    7   35 1
    38    8   36 1
    39    9   37 1
    40   19   38 1
    41   19   39 1
    42   19   40 1
    43   20   41 1
    44   20   42 1
    45   20   43 1
    46   21   44 1
@<TRIPOS>Similarity
1.3865
@<TRIPOS>ShapeSim
0.9185
@<TRIPOS>PharmSim
0.4680
# END
# Name:		AE-842/31986011
# Created and modified by SHAFTS on Mon Jul  5 00:36:42 2010

# 

@<TRIPOS>MOLECULE
AE-842/31986011
   54    56     0
SMALL
USER_CHARGE


@<TRIPOS>ATOM
      1 C1         -0.0002    4.8386   -1.0194 C.ar      1 <1>        -0.0502
      2 C2          1.0448    5.4632    1.0673 C.ar      1 <1>        -0.0528
      3 C3          5.4747    1.0248    1.0014 C.ar      1 <1>        -0.0768
      4 C4          5.6973    2.2189   -1.0870 C.ar      1 <1>        -0.0704
      5 C5         -0.7363    6.0232   -1.0055 C.ar      1 <1>        -0.0354
      6 C6          0.3087    6.6480    1.0813 C.ar      1 <1>        -0.0371
      7 C7          6.8410    0.7449    0.9870 C.ar      1 <1>        -0.0614
      8 C8          7.0637    1.9390   -1.1015 C.ar      1 <1>        -0.0507
      9 C9          0.8904    4.5585    0.0170 C.ar      1 <1>        -0.0298
     10 C10         4.9027    1.7619   -0.0357 C.ar      1 <1>        -0.0426
     11 C11         1.2361    2.0189    0.0009 C.2       1 <1>         0.1006
     12 C12         2.3981    1.2086   -0.0147 C.2       1 <1>         0.1020
     13 C13        -0.5818    6.9280    0.0449 C.ar      1 <1>         0.0706
     14 C14         7.6356    1.2019   -0.0643 C.ar      1 <1>        -0.0093
     15 C15         1.6505    3.3325    0.0037 C.2       1 <1>         0.0007
     16 C16         3.4873    2.0518   -0.0207 C.2       1 <1>        -0.0056
     17 C17        -0.1350    1.5890    0.0118 C.2       1 <1>         0.1999
     18 C18         2.4687   -0.2267   -0.0228 C.2       1 <1>         0.1988
     19 C19        -1.6041   -1.4669   -1.4314 C.3       1 <1>        -0.0325
     20 C20         5.0526   -2.3990   -1.5003 C.3       1 <1>        -0.0326
     21 C21         9.4878    0.1704    1.0131 C.3       1 <1>         0.0256
     22 C22        -1.6353   -0.1488   -0.6876 C.3       1 <1>         0.0291
     23 C23         3.7708   -2.1069   -0.7498 C.3       1 <1>         0.0291
     24 N1          3.0209    3.3404   -0.0092 N.pl3     1 <1>        -0.3286
     25 N2         -1.3314    8.1337    0.0591 N.pl3     1 <1>        -0.0477
     26 O1         -2.1272    8.3663   -0.8828 O.3       1 <1>        -0.1547
     27 O2         -1.0793    2.2153    0.5349 O.2       1 <1>        -0.4325
     28 O3          1.6258   -0.9895    0.4923 O.2       1 <1>        -0.4343
     29 O4         -1.1776    8.9341    1.0133 O.2       1 <1>        -0.2459
     30 O5          8.9689    0.9287   -0.0784 O.3       1 <1>        -0.4148
     31 O6         -0.3084    0.3859   -0.6303 O.3       1 <1>        -0.3457
     32 O7          3.5879   -0.6890   -0.6735 O.3       1 <1>        -0.3454
     33 H1         -0.1318    4.1435   -1.8454 H         1 <1>         0.1561
     34 H2          1.7341    5.2586    1.8832 H         1 <1>         0.1505
     35 H3          4.8687    0.6615    1.8280 H         1 <1>         0.1425
     36 H4          5.2664    2.7947   -1.9028 H         1 <1>         0.1408
     37 H5         -1.4276    6.2288   -1.8192 H         1 <1>         0.1703
     38 H6          0.4373    7.3440    1.9065 H         1 <1>         0.1690
     39 H7          7.2809    0.1703    1.7976 H         1 <1>         0.1194
     40 H8          7.6776    2.2977   -1.9232 H         1 <1>         0.1350
     41 H9         -1.2388   -1.3299   -2.4530 H         1 <1>         0.0499
     42 H10        -0.9565   -2.1849   -0.9176 H         1 <1>         0.0490
     43 H11        -2.6040   -1.9115   -1.4705 H         1 <1>         0.0603
     44 H12         5.0098   -1.9975   -2.5166 H         1 <1>         0.0596
     45 H13         5.9117   -1.9600   -0.9826 H         1 <1>         0.0494
     46 H14         5.2308   -3.4782   -1.5540 H         1 <1>         0.0495
     47 H15        10.5622    0.0239    0.8777 H         1 <1>         0.1239
     48 H16         8.9805   -0.7966    1.0600 H         1 <1>         0.0908
     49 H17         9.3111    0.7177    1.9420 H         1 <1>         0.0909
     50 H18        -2.0016   -0.2928    0.3333 H         1 <1>         0.1039
     51 H19        -2.2821    0.5676   -1.2026 H         1 <1>         0.1039
     52 H20         3.8202   -2.5110    0.2658 H         1 <1>         0.1029
     53 H21         2.9133   -2.5455   -1.2688 H         1 <1>         0.1034
     54 H22         3.5993    4.1701   -0.0103 H         1 <1>         0.3595
@<TRIPOS>BOND
     1    1    5 ar
     2    1    9 ar
     3    2    6 ar
     4    2    9 ar
     5    3    7 ar
     6    3   10 ar
     7    4    8 ar
     8    4   10 ar
     9    5   13 ar
    10    6   13 ar
    11    7   14 ar
    12    8   14 ar
    13    9   15 1
    14   10   16 1
    15   11   12 1
    16   11   15 2
    17   11   17 1
    18   12   16 2
    19   12   18 1
    20   13   25 1
    21   14   30 1
    22   15   24 1
    23   16   24 1
    24   17   27 2
    25   17   31 1
    26   18   28 2
    27   18   32 1
    28   19   22 1
    29   20   23 1
    30   21   30 1
    31   22   31 1
    32   23   32 1
    33   25   26 1
    34   25   29 2
    35    1   33 1
    36    2   34 1
    37    3   35 1
    38    4   36 1
    39    5   37 1
    40    6   38 1
    41    7   39 1
    42    8   40 1
    43   19   41 1
    44   19   42 1
    45   19   43 1
    46   20   44 1
    47   20   45 1
    48   20   46 1
    49   21   47 1
    50   21   48 1
    51   21   49 1
    52   22   50 1
    53   22   51 1
    54   23   52 1
    55   23   53 1
    56   24   54 1
@<TRIPOS>Similarity
1.3861
@<TRIPOS>ShapeSim
0.9094
@<TRIPOS>PharmSim
0.4766
# END
# Name:		AH-487/36443043
# Created and modified by SHAFTS on Mon Jul  5 00:36:42 2010

# 

@<TRIPOS>MOLECULE
AH-487/36443043
   40    41     0
SMALL
USER_CHARGE


@<TRIPOS>ATOM
      1 C1          1.3146    5.4282    0.4502 C.ar      1 <1>        -0.0918
      2 C2         -0.7020    4.3981   -0.3919 C.ar      1 <1>        -0.0804
      3 C3          5.3992    1.8377   -1.0777 C.ar      1 <1>        -0.0680
      4 C4          5.3224    0.6135    1.0037 C.ar      1 <1>        -0.0809
      5 C5          0.6786    6.6697    0.4546 C.ar      1 <1>        -0.0673
      6 C6         -1.3381    5.6395   -0.3874 C.ar      1 <1>        -0.0530
      7 C7          6.7876    1.7068   -1.1035 C.ar      1 <1>        -0.0513
      8 C8          6.7109    0.4826    0.9779 C.ar      1 <1>        -0.0663
      9 C9          0.6242    4.2924    0.0269 C.ar      1 <1>        -0.0785
     10 C10         4.6666    1.2910   -0.0241 C.ar      1 <1>        -0.0070
     11 C11         7.4435    1.0293   -0.0758 C.ar      1 <1>        -0.0116
     12 C12        -0.6477    6.7753    0.0357 C.ar      1 <1>        -0.0084
     13 C13        -3.4588   10.4024   -1.0534 C.2       1 <1>        -0.1244
     14 C14         1.2874    2.9980    0.0224 C.2       1 <1>        -0.0729
     15 C15         2.6261    2.8082    0.0276 C.2       1 <1>        -0.0171
     16 C16        -2.3640    9.6572   -1.2411 C.2       1 <1>        -0.1033
     17 C17         3.1906    1.4300    0.0036 C.2       1 <1>         0.0762
     18 C18         9.4041    0.1966    0.9819 C.3       1 <1>         0.0256
     19 C19        -2.2865    8.1980   -0.9369 C.3       1 <1>         0.0305
     20 O1          2.4851    0.4275   -0.0198 O.2       1 <1>        -0.4702
     21 O2          8.7983    0.9015   -0.1006 O.3       1 <1>        -0.4145
     22 O3         -1.2683    7.9866    0.0400 O.3       1 <1>        -0.4062
     23 H1          2.3488    5.3619    0.7795 H         1 <1>         0.1349
     24 H2         -1.2533    3.5218   -0.7246 H         1 <1>         0.1435
     25 H3          4.8989    2.3675   -1.8843 H         1 <1>         0.1510
     26 H4          4.7607    0.1838    1.8291 H         1 <1>         0.1394
     27 H5          1.2215    7.5509    0.7853 H         1 <1>         0.1125
     28 H6         -2.3714    5.7155   -0.7149 H         1 <1>         0.1314
     29 H7          7.3527    2.1349   -1.9270 H         1 <1>         0.1311
     30 H8          7.2164   -0.0460    1.7815 H         1 <1>         0.1131
     31 H9         -3.4718   11.4610   -1.2883 H         1 <1>         0.0844
     32 H10        -4.3653    9.9572   -0.6582 H         1 <1>         0.0915
     33 H11         0.6312    2.1208   -0.0028 H         1 <1>         0.1545
     34 H12         3.3114    3.6477    0.0241 H         1 <1>         0.1175
     35 H13        -1.4688   10.1353   -1.6302 H         1 <1>         0.1056
     36 H14        10.4869    0.1678    0.8385 H         1 <1>         0.0907
     37 H15         9.0043   -0.8196    1.0255 H         1 <1>         0.0907
     38 H16         9.1763    0.7159    1.9159 H         1 <1>         0.1232
     39 H17        -2.0480    7.6029   -1.8240 H         1 <1>         0.1111
     40 H18        -3.2410    7.8538   -0.5266 H         1 <1>         0.1145
@<TRIPOS>BOND
     1    1    5 ar
     2    1    9 ar
     3    2    6 ar
     4    2    9 ar
     5    3    7 ar
     6    3   10 ar
     7    4    8 ar
     8    4   10 ar
     9    5   12 ar
    10    6   12 ar
    11    7   11 ar
    12    8   11 ar
    13    9   14 1
    14   10   17 1
    15   11   21 1
    16   12   22 1
    17   13   16 2
    18   14   15 2
    19   15   17 1
    20   16   19 1
    21   17   20 2
    22   18   21 1
    23   19   22 1
    24    1   23 1
    25    2   24 1
    26    3   25 1
    27    4   26 1
    28    5   27 1
    29    6   28 1
    30    7   29 1
    31    8   30 1
    32   13   31 1
    33   13   32 1
    34   14   33 1
    35   15   34 1
    36   16   35 1
    37   18   36 1
    38   18   37 1
    39   18   38 1
    40   19   39 1
    41   19   40 1
@<TRIPOS>Similarity
1.3852
@<TRIPOS>ShapeSim
0.8335
@<TRIPOS>PharmSim
0.5517
# END
# Name:		AO-365/43400524
# Created and modified by SHAFTS on Mon Jul  5 00:36:42 2010

# 

@<TRIPOS>MOLECULE
AO-365/43400524
   37    40     0
SMALL
USER_CHARGE


@<TRIPOS>ATOM
      1 C1          1.0278    6.4506    0.6322 C.ar      1 <1>        -0.0773
      2 C2          1.0780    5.0568    0.6235 C.ar      1 <1>        -0.0547
      3 C3          5.2588    0.0225    0.3676 C.ar      1 <1>        -0.0541
      4 C4          5.4613    2.2883   -0.4461 C.ar      1 <1>        -0.0605
      5 C5          6.6476   -0.1061    0.3553 C.ar      1 <1>        -0.0402
      6 C6          6.8502    2.1598   -0.4584 C.ar      1 <1>        -0.0517
      7 C7         -0.0476    7.1136    0.0408 C.ar      1 <1>        -0.0425
      8 C8         -1.0224    4.9886   -0.5684 C.ar      1 <1>        -0.0122
      9 C9          0.0530    4.3257    0.0231 C.ar      1 <1>         0.0171
     10 C10         4.6656    1.2196   -0.0332 C.ar      1 <1>         0.0055
     11 C11         7.4433    0.9625   -0.0576 C.ar      1 <1>        -0.0001
     12 C12        -1.0726    6.3826   -0.5596 C.ar      1 <1>         0.0724
     13 C13         0.1047    2.8841    0.0140 C.2       1 <1>         0.1135
     14 C14         0.8693    0.8686   -0.0040 C.2       1 <1>         0.1549
     15 C15         3.2258    1.3531   -0.0204 C.2       1 <1>         0.1235
     16 C16         9.0334    0.4517    2.2818 C.3       1 <1>        -0.0337
     17 C17         9.3782   -0.0418    0.8929 C.3       1 <1>         0.0175
     18 N1         -0.9228    2.0509    0.0170 N.2       1 <1>        -0.2268
     19 N2         -0.4266    0.7466    0.0054 N.2       1 <1>        -0.2347
     20 N3          2.5626    2.4827   -0.0079 N.2       1 <1>        -0.2769
     21 N4          1.2526    2.1611    0.0006 N.pl3     1 <1>        -0.2242
     22 O1          8.7986    0.8373   -0.0698 O.3       1 <1>        -0.4100
     23 F1         -2.1054    7.0192   -1.1272 F         1 <1>        -0.2663
     24 S1          2.2384   -0.1463   -0.0208 S.3       1 <1>         0.0524
     25 H1          1.8259    7.0206    1.0993 H         1 <1>         0.1420
     26 H2          1.9229    4.5547    1.0891 H         1 <1>         0.1504
     27 H3          4.6489   -0.8170    0.6917 H         1 <1>         0.1535
     28 H4          5.0088    3.2255   -0.7601 H         1 <1>         0.1553
     29 H5          7.1037   -1.0412    0.6685 H         1 <1>         0.1432
     30 H6          7.4649    2.9955   -0.7814 H         1 <1>         0.1239
     31 H7         -0.0870    8.1985    0.0473 H         1 <1>         0.1399
     32 H8         -1.8288    4.4333   -1.0411 H         1 <1>         0.1471
     33 H9          9.4270    1.4584    2.4472 H         1 <1>         0.0588
     34 H10         7.9483    0.4680    2.4275 H         1 <1>         0.0491
     35 H11         9.4466   -0.2185    3.0430 H         1 <1>         0.0491
     36 H12         8.9817   -1.0491    0.7341 H         1 <1>         0.0984
     37 H13        10.4626   -0.0567    0.7488 H         1 <1>         0.0983
@<TRIPOS>BOND
     1    1    2 ar
     2    1    7 ar
     3    2    9 ar
     4    3    5 ar
     5    3   10 ar
     6    4    6 ar
     7    4   10 ar
     8    5   11 ar
     9    6   11 ar
    10    7   12 ar
    11    8    9 ar
    12    8   12 ar
    13    9   13 1
    14   10   15 1
    15   11   22 1
    16   12   23 1
    17   13   18 2
    18   13   21 1
    19   14   19 2
    20   14   21 1
    21   14   24 1
    22   15   20 2
    23   15   24 1
    24   16   17 1
    25   17   22 1
    26   18   19 1
    27   20   21 1
    28    1   25 1
    29    2   26 1
    30    3   27 1
    31    4   28 1
    32    5   29 1
    33    6   30 1
    34    7   31 1
    35    8   32 1
    36   16   33 1
    37   16   34 1
    38   16   35 1
    39   17   36 1
    40   17   37 1
@<TRIPOS>Similarity
1.3852
@<TRIPOS>ShapeSim
0.8855
@<TRIPOS>PharmSim
0.4997
# END
# Name:		AO-081/15246973
# Created and modified by SHAFTS on Mon Jul  5 00:36:42 2010

# 

@<TRIPOS>MOLECULE
AO-081/15246973
   43    46     0
SMALL
USER_CHARGE


@<TRIPOS>ATOM
      1 C1          7.4496    1.1491   -0.0655 C.ar      1 <1>        -0.1013
      2 C2          6.5325    0.2919    0.5427 C.ar      1 <1>        -0.0912
      3 C3          7.0107    2.3329   -0.6586 C.ar      1 <1>        -0.0923
      4 C4          0.5122    5.1336    1.2321 C.ar      1 <1>        -0.0728
      5 C5          0.4886    5.1462   -1.1837 C.ar      1 <1>        -0.0738
      6 C6         -0.2469    6.3037    1.2457 C.ar      1 <1>        -0.0951
      7 C7         -0.2707    6.3162   -1.1702 C.ar      1 <1>        -0.0961
      8 C8          5.1766    0.6186    0.5578 C.ar      1 <1>        -0.0517
      9 C9          5.6547    2.6594   -0.6434 C.ar      1 <1>        -0.0530
     10 C10        -0.0200   -0.0386    0.0025 C.ar      1 <1>        -0.0578
     11 C11         1.1886    2.0191    0.0015 C.ar      1 <1>         0.0228
     12 C12         0.8801    4.5549    0.0174 C.ar      1 <1>        -0.0261
     13 C13        -0.6384    6.8950    0.0446 C.ar      1 <1>        -0.1145
     14 C14        -0.0448    1.3561    0.0102 C.ar      1 <1>        -0.0798
     15 C15         4.7376    1.8023   -0.0352 C.ar      1 <1>         0.0022
     16 C16         1.6638    3.3456    0.0039 C.2       1 <1>         0.0395
     17 C17         1.2091   -0.6896   -0.0132 C.ar      1 <1>        -0.0411
     18 C18         2.3404    1.2479   -0.0140 C.ar      1 <1>         0.0519
     19 C19        -1.4512    8.1452    0.0602 C.3       1 <1>        -0.0418
     20 C20        -1.3622    2.0587    0.0266 C.3       1 <1>        -0.0263
     21 C21         1.2195   -2.1851   -0.0206 C.3       1 <1>         0.0009
     22 N1          2.9989    3.4178   -0.0090 N.2       1 <1>        -0.2836
     23 N2          2.4261   -0.0938   -0.0221 N.ar      1 <1>        -0.3612
     24 N3          3.3819    2.1282   -0.0195 N.pl3     1 <1>        -0.2501
     25 H1          8.5057    0.8962   -0.0760 H         1 <1>         0.1196
     26 H2          6.8742   -0.6292    1.0057 H         1 <1>         0.1274
     27 H3          7.7256    3.0005   -1.1308 H         1 <1>         0.1262
     28 H4          0.8100    4.6855    2.1772 H         1 <1>         0.1324
     29 H5          0.7672    4.7072   -2.1389 H         1 <1>         0.1328
     30 H6         -0.5299    6.7476    2.1964 H         1 <1>         0.1217
     31 H7         -0.5719    6.7707   -2.1104 H         1 <1>         0.1219
     32 H8          4.4724   -0.0579    1.0360 H         1 <1>         0.1372
     33 H9          5.3262    3.5857   -1.1087 H         1 <1>         0.1347
     34 H10        -0.9464   -0.6063    0.0074 H         1 <1>         0.1275
     35 H11        -0.7974    9.0260    0.0591 H         1 <1>         0.0585
     36 H12        -2.1124    8.2018   -0.8143 H         1 <1>         0.0550
     37 H13        -2.0951    8.1909    0.9484 H         1 <1>         0.0548
     38 H14        -1.6878    2.2321    1.0590 H         1 <1>         0.0699
     39 H15        -1.3025    3.0258   -0.4880 H         1 <1>         0.0641
     40 H16        -2.1320    1.4705   -0.4884 H         1 <1>         0.0677
     41 H17         1.2117   -2.5578   -1.0506 H         1 <1>         0.0821
     42 H18         2.1087   -2.5758    0.4877 H         1 <1>         0.0790
     43 H19         0.3461   -2.5880    0.5055 H         1 <1>         0.0800
@<TRIPOS>BOND
     1    1    2 ar
     2    1    3 ar
     3    2    8 ar
     4    3    9 ar
     5    4    6 ar
     6    4   12 ar
     7    5    7 ar
     8    5   12 ar
     9    6   13 ar
    10    7   13 ar
    11    8   15 ar
    12    9   15 ar
    13   10   14 ar
    14   10   17 ar
    15   11   14 ar
    16   11   16 1
    17   11   18 ar
    18   12   16 1
    19   13   19 1
    20   14   20 1
    21   15   24 1
    22   16   22 2
    23   17   21 1
    24   17   23 ar
    25   18   23 ar
    26   18   24 1
    27   22   24 1
    28    1   25 1
    29    2   26 1
    30    3   27 1
    31    4   28 1
    32    5   29 1
    33    6   30 1
    34    7   31 1
    35    8   32 1
    36    9   33 1
    37   10   34 1
    38   19   35 1
    39   19   36 1
    40   19   37 1
    41   20   38 1
    42   20   39 1
    43   20   40 1
    44   21   41 1
    45   21   42 1
    46   21   43 1
@<TRIPOS>Similarity
1.3852
@<TRIPOS>ShapeSim
0.9205
@<TRIPOS>PharmSim
0.4646
# END
# Name:		AO-365/43400520
# Created and modified by SHAFTS on Mon Jul  5 00:36:42 2010

# 

@<TRIPOS>MOLECULE
AO-365/43400520
   38    41     0
SMALL
USER_CHARGE


@<TRIPOS>ATOM
      1 C1          0.9379    6.5110    0.6337 C.ar      1 <1>        -0.0780
      2 C2          1.0063    5.1179    0.6246 C.ar      1 <1>        -0.0551
      3 C3          5.2799    0.6598    1.0140 C.ar      1 <1>        -0.0491
      4 C4          6.6693    0.5370    1.0202 C.ar      1 <1>        -0.0504
      5 C5         -0.1459    7.1600    0.0422 C.ar      1 <1>        -0.0433
      6 C6         -1.0930    5.0226   -0.5676 C.ar      1 <1>        -0.0122
      7 C7          6.7857    1.7503   -1.0658 C.ar      1 <1>        -0.0087
      8 C8         -0.0091    4.3737    0.0240 C.ar      1 <1>         0.0162
      9 C9          4.6434    1.3277   -0.0321 C.ar      1 <1>         0.0518
     10 C10         7.4223    1.0822   -0.0197 C.ar      1 <1>        -0.0005
     11 C11         5.3963    1.8730   -1.0719 C.ar      1 <1>         0.0352
     12 C12        -1.1613    6.4158   -0.5585 C.ar      1 <1>         0.0718
     13 C13         0.0612    2.9329    0.0147 C.2       1 <1>         0.1113
     14 C14         0.8519    0.9274   -0.0035 C.2       1 <1>         0.1577
     15 C15         3.2020    1.4425   -0.0195 C.2       1 <1>         0.1365
     16 C16         9.3630    0.2648    1.0853 C.3       1 <1>         0.0297
     17 C17         4.4135    1.7479   -3.2339 C.3       1 <1>         0.0318
     18 N1         -0.9554    2.0863    0.0175 N.2       1 <1>        -0.2300
     19 N2         -0.4423    0.7887    0.0056 N.2       1 <1>        -0.2382
     20 N3          2.5242    2.5634   -0.0069 N.2       1 <1>        -0.2788
     21 N4          1.2185    2.2248    0.0013 N.pl3     1 <1>        -0.2268
     22 O1          8.7781    0.9612   -0.0140 O.3       1 <1>        -0.4080
     23 O2          4.7933    2.5293   -2.1033 O.3       1 <1>        -0.4008
     24 F1         -2.2022    7.0391   -1.1263 F         1 <1>        -0.2668
     25 S1          2.2342   -0.0697   -0.0203 S.3       1 <1>         0.0641
     26 H1          1.7285    7.0911    1.1010 H         1 <1>         0.1413
     27 H2          1.8575    4.6267    1.0904 H         1 <1>         0.1497
     28 H3          4.7043    0.2308    1.8304 H         1 <1>         0.1685
     29 H4          7.1586    0.0151    1.8381 H         1 <1>         0.1208
     30 H5         -0.1993    8.2444    0.0488 H         1 <1>         0.1387
     31 H6         -1.8919    4.4571   -1.0405 H         1 <1>         0.1473
     32 H7          7.3727    2.1727   -1.8776 H         1 <1>         0.1360
     33 H8         10.4489    0.2405    0.9660 H         1 <1>         0.0943
     34 H9          8.9673   -0.7532    1.1251 H         1 <1>         0.1262
     35 H10         9.1121    0.7876    2.0114 H         1 <1>         0.0943
     36 H11         3.9446    2.3919   -3.9819 H         1 <1>         0.0971
     37 H12         3.7155    0.9673   -2.9207 H         1 <1>         0.0971
     38 H13         5.3058    1.2854   -3.6625 H         1 <1>         0.1294
@<TRIPOS>BOND
     1    1    2 ar
     2    1    5 ar
     3    2    8 ar
     4    3    4 ar
     5    3    9 ar
     6    4   10 ar
     7    5   12 ar
     8    6    8 ar
     9    6   12 ar
    10    7   10 ar
    11    7   11 ar
    12    8   13 1
    13    9   11 ar
    14    9   15 1
    15   10   22 1
    16   11   23 1
    17   12   24 1
    18   13   18 2
    19   13   21 1
    20   14   19 2
    21   14   21 1
    22   14   25 1
    23   15   20 2
    24   15   25 1
    25   16   22 1
    26   17   23 1
    27   18   19 1
    28   20   21 1
    29    1   26 1
    30    2   27 1
    31    3   28 1
    32    4   29 1
    33    5   30 1
    34    6   31 1
    35    7   32 1
    36   16   33 1
    37   16   34 1
    38   16   35 1
    39   17   36 1
    40   17   37 1
    41   17   38 1
@<TRIPOS>Similarity
1.3847
@<TRIPOS>ShapeSim
0.8830
@<TRIPOS>PharmSim
0.5017
# END
# Name:		AI-060/41884474
# Created and modified by SHAFTS on Mon Jul  5 00:36:42 2010

# 

@<TRIPOS>MOLECULE
AI-060/41884474
   39    42     0
SMALL
USER_CHARGE


@<TRIPOS>ATOM
      1 C1          5.6637    2.1363   -1.0863 C.ar      1 <1>        -0.0708
      2 C2          5.6401    0.9118    0.9962 C.ar      1 <1>        -0.0783
      3 C3          0.4274    4.6805   -1.1867 C.ar      1 <1>        -0.0616
      4 C4          0.4491    4.6637    1.2292 C.ar      1 <1>        -0.0761
      5 C5          7.0577    2.0913   -1.0971 C.ar      1 <1>        -0.0976
      6 C6          7.0343    0.8667    0.9855 C.ar      1 <1>        -0.1023
      7 C7         -0.2299    5.9106   -1.1723 C.ar      1 <1>        -0.0629
      8 C8         -0.2083    5.8940    1.2436 C.ar      1 <1>        -0.0745
      9 C9          2.8386    2.8041   -0.0134 C.ar      1 <1>        -0.0368
     10 C10         0.7668    4.0571    0.0141 C.ar      1 <1>        -0.0474
     11 C11         4.9548    1.5466   -0.0396 C.ar      1 <1>        -0.0290
     12 C12         1.4497    2.7777   -0.0009 C.ar      1 <1>        -0.0311
     13 C13         0.7974    1.5475   -0.0042 C.ar      1 <1>         0.0899
     14 C14         7.7431    1.4565   -0.0613 C.ar      1 <1>        -0.1193
     15 C15        -0.5477    6.5174    0.0428 C.ar      1 <1>        -0.0209
     16 C16         3.5118    1.5935   -0.0284 C.ar      1 <1>        -0.0025
     17 C17         1.5507    0.3754   -0.0200 C.ar      1 <1>         0.0555
     18 C18        -0.6743    1.4527    0.0081 C.2       1 <1>         0.1259
     19 C19        -0.3372   -0.9652   -0.0139 C.2       1 <1>        -0.0264
     20 C20         9.2336    1.4085   -0.0726 C.3       1 <1>        -0.0447
     21 N1          2.9040    0.3845   -0.0319 N.ar      1 <1>        -0.3393
     22 N2          0.9577   -0.9009   -0.0247 N.2       1 <1>        -0.3294
     23 N3         -1.1538    0.1530    0.0021 N.am      1 <1>        -0.2580
     24 O1         -1.4151    2.4282    0.0235 O.2       1 <1>        -0.4802
     25 S1         -1.0340   -2.6285   -0.0220 S.3       1 <1>        -0.4227
     26 Cl1        -1.3601    8.0346    0.0598 Cl        1 <1>        -0.1532
     27 H1          5.1439    2.6355   -1.9008 H         1 <1>         0.1448
     28 H2          5.1018    0.4470    1.8188 H         1 <1>         0.1286
     29 H3          0.6682    4.2201   -2.1419 H         1 <1>         0.1490
     30 H4          0.7062    4.1899    2.1736 H         1 <1>         0.1330
     31 H5          7.6018    2.5543   -1.9160 H         1 <1>         0.1165
     32 H6          7.5601    0.3696    1.7964 H         1 <1>         0.1143
     33 H7         -0.4903    6.3847   -2.1155 H         1 <1>         0.1289
     34 H8         -0.4507    6.3547    2.1979 H         1 <1>         0.1254
     35 H9          3.3846    3.7439   -0.0102 H         1 <1>         0.1245
     36 H10         9.6478    2.2819    0.4458 H         1 <1>         0.0518
     37 H11         9.6069    0.5017    0.4208 H         1 <1>         0.0545
     38 H12         9.6240    1.3953   -1.0986 H         1 <1>         0.0545
     39 H13        -2.1597    0.0122    0.0120 H         1 <1>         0.3676
@<TRIPOS>BOND
     1    1    5 ar
     2    1   11 ar
     3    2    6 ar
     4    2   11 ar
     5    3    7 ar
     6    3   10 ar
     7    4    8 ar
     8    4   10 ar
     9    5   14 ar
    10    6   14 ar
    11    7   15 ar
    12    8   15 ar
    13    9   12 ar
    14    9   16 ar
    15   10   12 1
    16   11   16 1
    17   12   13 ar
    18   13   17 ar
    19   13   18 1
    20   14   20 1
    21   15   26 1
    22   16   21 ar
    23   17   21 ar
    24   17   22 1
    25   18   23 am
    26   18   24 2
    27   19   22 2
    28   19   23 1
    29   19   25 1
    30    1   27 1
    31    2   28 1
    32    3   29 1
    33    4   30 1
    34    5   31 1
    35    6   32 1
    36    7   33 1
    37    8   34 1
    38    9   35 1
    39   20   36 1
    40   20   37 1
    41   20   38 1
    42   23   39 1
@<TRIPOS>Similarity
1.3846
@<TRIPOS>ShapeSim
0.9088
@<TRIPOS>PharmSim
0.4758
# END
# Name:		AJ-916/40989360
# Created and modified by SHAFTS on Mon Jul  5 00:36:42 2010

# 

@<TRIPOS>MOLECULE
AJ-916/40989360
   40    42     0
SMALL
USER_CHARGE


@<TRIPOS>ATOM
      1 C1          0.6730    6.8269    0.9823 C.ar      1 <1>        -0.0879
      2 C2          1.0973    5.7096    0.2632 C.ar      1 <1>        -0.0727
      3 C3          5.8313    2.3813   -0.7437 C.ar      1 <1>        -0.0536
      4 C4          5.1911    0.4139    0.5038 C.ar      1 <1>        -0.0382
      5 C5          7.1746    2.0320   -0.6054 C.ar      1 <1>        -0.0555
      6 C6          6.5344    0.0646    0.6422 C.ar      1 <1>        -0.0395
      7 C7         -0.5955    7.3613    0.7562 C.ar      1 <1>        -0.0766
      8 C8         -1.0151    5.6613   -0.9083 C.ar      1 <1>        -0.0509
      9 C9          3.0251    3.0223   -0.9786 C.2       1 <1>         0.0110
     10 C10         0.2533    5.1269   -0.6822 C.ar      1 <1>         0.0138
     11 C11         1.6572    2.9655   -0.8680 C.2       1 <1>         0.0651
     12 C12         4.8396    1.5722   -0.1891 C.ar      1 <1>         0.0042
     13 C13         7.5262    0.8737    0.0876 C.ar      1 <1>        -0.0051
     14 C14        -1.4395    6.7786   -0.1891 C.ar      1 <1>        -0.0303
     15 C15         1.4122    1.7909   -0.1315 C.2       1 <1>         0.0974
     16 C16         0.6968    3.9618   -1.4313 C.2       1 <1>         0.1244
     17 C17         0.1425    1.2520    0.2683 C.2       1 <1>         0.1245
     18 C18         0.1325   -0.0332    1.0602 C.3       1 <1>         0.0481
     19 C19         9.1245   -0.6657    0.9430 C.3       1 <1>         0.0258
     20 N1          2.5344    1.1479    0.2019 N.2       1 <1>        -0.2862
     21 N2          3.4978    1.9210   -0.3274 N.pl3     1 <1>        -0.2748
     22 O1          0.2790    3.7621   -2.5815 O.2       1 <1>        -0.4190
     23 O2         -0.9683    1.7499    0.0152 O.2       1 <1>        -0.4249
     24 O3          8.8367    0.5317    0.2224 O.3       1 <1>        -0.4146
     25 Br1        -3.1578    7.5033   -0.4954 Br        1 <1>        -0.1049
     26 H1          1.3302    7.2804    1.7183 H         1 <1>         0.1320
     27 H2          2.0877    5.3019    0.4479 H         1 <1>         0.1364
     28 H3          5.5714    3.2872   -1.2862 H         1 <1>         0.1429
     29 H4          4.4281   -0.2252    0.9416 H         1 <1>         0.1615
     30 H5          7.9429    2.6659   -1.0396 H         1 <1>         0.1277
     31 H6          6.8013   -0.8395    1.1827 H         1 <1>         0.1452
     32 H7         -0.9105    8.2324    1.3251 H         1 <1>         0.1427
     33 H8         -1.6695    5.2030   -1.6468 H         1 <1>         0.1550
     34 H9          3.6826    3.7370   -1.4568 H         1 <1>         0.2214
     35 H10         0.1756    0.1210    2.1500 H         1 <1>         0.0735
     36 H11         0.9574   -0.7108    0.7899 H         1 <1>         0.0877
     37 H12        -0.7800   -0.6388    0.9168 H         1 <1>         0.0877
     38 H13        10.2057   -0.8209    0.9761 H         1 <1>         0.0911
     39 H14         8.6388   -1.5129    0.4523 H         1 <1>         0.0911
     40 H15         8.7414   -0.5684    1.9616 H         1 <1>         0.1244
@<TRIPOS>BOND
     1    1    2 ar
     2    1    7 ar
     3    2   10 ar
     4    3    5 ar
     5    3   12 ar
     6    4    6 ar
     7    4   12 ar
     8    5   13 ar
     9    6   13 ar
    10    7   14 ar
    11    8   10 ar
    12    8   14 ar
    13    9   11 2
    14    9   21 1
    15   10   16 1
    16   11   15 1
    17   11   16 1
    18   12   21 1
    19   13   24 1
    20   14   25 1
    21   15   17 1
    22   15   20 2
    23   16   22 2
    24   17   18 1
    25   17   23 2
    26   19   24 1
    27   20   21 1
    28    1   26 1
    29    2   27 1
    30    3   28 1
    31    4   29 1
    32    5   30 1
    33    6   31 1
    34    7   32 1
    35    8   33 1
    36    9   34 1
    37   18   35 1
    38   18   36 1
    39   18   37 1
    40   19   38 1
    41   19   39 1
    42   19   40 1
@<TRIPOS>Similarity
1.3845
@<TRIPOS>ShapeSim
0.8811
@<TRIPOS>PharmSim
0.5034
# END
# Name:		AG-690/12404942
# Created and modified by SHAFTS on Mon Jul  5 00:36:42 2010

# 

@<TRIPOS>MOLECULE
AG-690/12404942
   38    41     0
SMALL
USER_CHARGE


@<TRIPOS>ATOM
      1 C1          5.4645    2.4067   -0.6545 C.ar      1 <1>        -0.0702
      2 C2          5.2495    0.3774    0.6391 C.ar      1 <1>        -0.0769
      3 C3         -0.3456    5.0418   -1.1312 C.ar      1 <1>        -0.0785
      4 C4          0.8785    5.2404    0.9422 C.ar      1 <1>        -0.0775
      5 C5          6.8426    2.2077   -0.7376 C.ar      1 <1>        -0.0912
      6 C6          6.6277    0.1784    0.5558 C.ar      1 <1>        -0.0953
      7 C7         -0.9746    6.2605   -0.8768 C.ar      1 <1>        -0.0751
      8 C8          0.2496    6.4592    1.1967 C.ar      1 <1>        -0.0752
      9 C9         -1.0269    0.7697    0.4541 C.2       1 <1>         0.0578
     10 C10         4.6680    1.4915    0.0340 C.ar      1 <1>        -0.0258
     11 C11         0.5810    4.5317   -0.2218 C.ar      1 <1>        -0.0592
     12 C12         7.4242    1.0936   -0.1326 C.ar      1 <1>        -0.1120
     13 C13        -0.6769    6.9692    0.2872 C.ar      1 <1>        -0.0369
     14 C14         1.0778    0.8659    0.3266 C.2       1 <1>         0.1025
     15 C15         3.1946    1.7030    0.1231 C.2       1 <1>         0.0146
     16 C16         2.6698    3.1391    0.1088 C.3       1 <1>         0.0522
     17 C17         1.2635    3.2090   -0.4980 C.3       1 <1>         0.0501
     18 C18         8.8976    0.8806   -0.2227 C.3       1 <1>        -0.0394
     19 N1          0.1064    0.0333    0.6546 N.2       1 <1>        -0.3139
     20 N2         -0.8379    2.0145    0.0158 N.2       1 <1>        -0.3057
     21 N3          2.4186    0.6651    0.2544 N.2       1 <1>        -0.2965
     22 N4          0.5015    2.0639   -0.0173 N.pl3     1 <1>        -0.2683
     23 Br1        -1.5300    8.6200    0.6317 Br        1 <1>        -0.1060
     24 H1          5.0212    3.2780   -1.1295 H         1 <1>         0.1479
     25 H2          4.6388   -0.3421    1.1780 H         1 <1>         0.1345
     26 H3         -0.5835    4.4965   -2.0408 H         1 <1>         0.1289
     27 H4          1.5984    4.8503    1.6569 H         1 <1>         0.1365
     28 H5          7.4555    2.9255   -1.2762 H         1 <1>         0.1230
     29 H6          7.0723   -0.6927    1.0298 H         1 <1>         0.1224
     30 H7         -1.6948    6.6433   -1.5953 H         1 <1>         0.1373
     31 H8          0.4928    6.9990    2.1081 H         1 <1>         0.1387
     32 H9         -2.0199    0.3844    0.6322 H         1 <1>         0.2911
     33 H10         2.7071    3.5724    1.1076 H         1 <1>         0.1111
     34 H11         3.3577    3.6990   -0.5305 H         1 <1>         0.1212
     35 H12         1.3502    3.0969   -1.6143 H         1 <1>         0.1602
     36 H13         9.4057    1.3648    0.6202 H         1 <1>         0.0607
     37 H14         9.1471   -0.1883   -0.2120 H         1 <1>         0.0565
     38 H15         9.3031    1.2920   -1.1563 H         1 <1>         0.0562
@<TRIPOS>BOND
     1    1    5 ar
     2    1   10 ar
     3    2    6 ar
     4    2   10 ar
     5    3    7 ar
     6    3   11 ar
     7    4    8 ar
     8    4   11 ar
     9    5   12 ar
    10    6   12 ar
    11    7   13 ar
    12    8   13 ar
    13    9   19 1
    14    9   20 2
    15   10   15 1
    16   11   17 1
    17   12   18 1
    18   13   23 1
    19   14   19 2
    20   14   21 1
    21   14   22 1
    22   15   16 1
    23   15   21 2
    24   16   17 1
    25   17   22 1
    26   20   22 1
    27    1   24 1
    28    2   25 1
    29    3   26 1
    30    4   27 1
    31    5   28 1
    32    6   29 1
    33    7   30 1
    34    8   31 1
    35    9   32 1
    36   16   33 1
    37   16   34 1
    38   17   35 1
    39   18   36 1
    40   18   37 1
    41   18   38 1
@<TRIPOS>Similarity
1.3838
@<TRIPOS>ShapeSim
0.9237
@<TRIPOS>PharmSim
0.4601
# END
# Name:		AG-690/09285010
# Created and modified by SHAFTS on Mon Jul  5 00:36:42 2010

# 

@<TRIPOS>MOLECULE
AG-690/09285010
   46    49     0
SMALL
USER_CHARGE


@<TRIPOS>ATOM
      1 C1         -0.7330    6.7406    0.0447 C.ar      1 <1>        -0.1077
      2 C2         -2.4467    0.2640    0.0311 C.ar      1 <1>        -0.1044
      3 C3         -0.8079    5.8256   -1.0054 C.ar      1 <1>        -0.1010
      4 C4          0.1793    6.5400    1.0807 C.ar      1 <1>        -0.1017
      5 C5         -2.0588    1.1014    1.0770 C.ar      1 <1>        -0.0973
      6 C6         -1.5702    0.0154   -1.0252 C.ar      1 <1>        -0.1020
      7 C7          0.0292    4.7101   -1.0195 C.ar      1 <1>        -0.0777
      8 C8          1.0165    5.4245    1.0666 C.ar      1 <1>        -0.0793
      9 C9         -0.7944    1.6903    1.0665 C.ar      1 <1>        -0.0790
     10 C10        -0.3059    0.6044   -1.0356 C.ar      1 <1>        -0.0855
     11 C11         5.7999    2.1277   -1.0888 C.ar      1 <1>        -0.0633
     12 C12         5.4516    0.9676    1.0016 C.ar      1 <1>        -0.0642
     13 C13         7.1281    1.7023   -1.1037 C.ar      1 <1>        -0.0593
     14 C14         6.7800    0.5421    0.9869 C.ar      1 <1>        -0.0526
     15 C15         0.9415    4.5095    0.0165 C.ar      1 <1>        -0.0413
     16 C16         0.0821    1.4418    0.0103 C.ar      1 <1>        -0.0537
     17 C17         4.9616    1.7604   -0.0361 C.ar      1 <1>        -0.0143
     18 C18         7.6182    0.9095   -0.0659 C.ar      1 <1>        -0.0102
     19 C19         1.8035    3.3610    0.0024 C.2       1 <1>        -0.0019
     20 C20         1.3892    2.0499    0.0002 C.2       1 <1>        -0.0194
     21 C21         3.5877    2.2005   -0.0208 C.2       1 <1>         0.0122
     22 C22         8.4011   -1.8441   -0.1326 C.3       1 <1>        -0.0345
     23 C23         9.2033   -0.7544    0.5463 C.3       1 <1>         0.0144
     24 N1          3.1732    3.4479   -0.0110 N.2       1 <1>        -0.3634
     25 N2          2.5431    1.3183   -0.0152 N.pl3     1 <1>        -0.3271
     26 O1          8.9144    0.4944   -0.0803 O.3       1 <1>        -0.4165
     27 H1         -1.3841    7.6098    0.0554 H         1 <1>         0.1139
     28 H2         -3.4310   -0.1951    0.0396 H         1 <1>         0.1182
     29 H3         -1.5173    5.9822   -1.8127 H         1 <1>         0.1157
     30 H4          0.2383    7.2534    1.8976 H         1 <1>         0.1155
     31 H5         -2.7415    1.2950    1.8993 H         1 <1>         0.1208
     32 H6         -1.8718   -0.6375   -1.8390 H         1 <1>         0.1180
     33 H7         -0.0412    4.0058   -1.8452 H         1 <1>         0.1277
     34 H8          1.7223    5.2826    1.8817 H         1 <1>         0.1229
     35 H9         -0.5058    2.3387    1.8905 H         1 <1>         0.1300
     36 H10         0.3654    0.4016   -1.8667 H         1 <1>         0.1190
     37 H11         5.4328    2.7452   -1.9051 H         1 <1>         0.1514
     38 H12         4.8108    0.6729    1.8293 H         1 <1>         0.1325
     39 H13         7.7764    1.9916   -1.9263 H         1 <1>         0.1175
     40 H14         7.1560   -0.0753    1.7980 H         1 <1>         0.1321
     41 H15         7.3283   -1.6502   -0.0462 H         1 <1>         0.0577
     42 H16         8.6637   -1.9127   -1.1933 H         1 <1>         0.0481
     43 H17         8.6207   -2.8197    0.3135 H         1 <1>         0.0481
     44 H18        10.2751   -0.9544    0.4562 H         1 <1>         0.0960
     45 H19         8.9391   -0.6866    1.6059 H         1 <1>         0.0960
     46 H20         2.6122    0.3087   -0.0207 H         1 <1>         0.3498
@<TRIPOS>BOND
     1    1    3 ar
     2    1    4 ar
     3    2    5 ar
     4    2    6 ar
     5    3    7 ar
     6    4    8 ar
     7    5    9 ar
     8    6   10 ar
     9    7   15 ar
    10    8   15 ar
    11    9   16 ar
    12   10   16 ar
    13   11   13 ar
    14   11   17 ar
    15   12   14 ar
    16   12   17 ar
    17   13   18 ar
    18   14   18 ar
    19   15   19 1
    20   16   20 1
    21   17   21 1
    22   18   26 1
    23   19   20 2
    24   19   24 1
    25   20   25 1
    26   21   24 2
    27   21   25 1
    28   22   23 1
    29   23   26 1
    30    1   27 1
    31    2   28 1
    32    3   29 1
    33    4   30 1
    34    5   31 1
    35    6   32 1
    36    7   33 1
    37    8   34 1
    38    9   35 1
    39   10   36 1
    40   11   37 1
    41   12   38 1
    42   13   39 1
    43   14   40 1
    44   22   41 1
    45   22   42 1
    46   22   43 1
    47   23   44 1
    48   23   45 1
    49   25   46 1
@<TRIPOS>Similarity
1.3833
@<TRIPOS>ShapeSim
0.8687
@<TRIPOS>PharmSim
0.5146
# END
# Name:		AG-205/12368057
# Created and modified by SHAFTS on Mon Jul  5 00:36:42 2010

# 

@<TRIPOS>MOLECULE
AG-205/12368057
   41    44     0
SMALL
USER_CHARGE


@<TRIPOS>ATOM
      1 C1          5.5363    2.2369   -0.6900 C.ar      1 <1>        -0.0652
      2 C2          5.2805    0.2110    0.6013 C.ar      1 <1>        -0.0592
      3 C3          0.3091    5.2282    1.3483 C.ar      1 <1>        -0.0921
      4 C4          0.2758    4.6387   -0.9945 C.ar      1 <1>        -0.0959
      5 C5         -0.3539    6.4205    1.0577 C.ar      1 <1>        -0.0973
      6 C6         -0.3872    5.8310   -1.2851 C.ar      1 <1>        -0.0993
      7 C7          6.9191    2.0549   -0.7019 C.ar      1 <1>        -0.0636
      8 C8          6.6635    0.0289    0.5895 C.ar      1 <1>        -0.0601
      9 C9         -0.9839    0.5252    0.0459 C.2       1 <1>         0.0578
     10 C10         4.7170    1.3151   -0.0384 C.ar      1 <1>        -0.0183
     11 C11         0.6240    4.3374    0.3221 C.ar      1 <1>        -0.0744
     12 C12        -0.7021    6.7219   -0.2590 C.ar      1 <1>        -0.1121
     13 C13         7.4827    0.9509   -0.0622 C.ar      1 <1>        -0.0084
     14 C14         1.1230    0.6447    0.0005 C.2       1 <1>         0.1036
     15 C15         3.2386    1.5092   -0.0259 C.2       1 <1>         0.0178
     16 C16         2.6978    2.9386   -0.0744 C.3       1 <1>         0.0523
     17 C17         1.3433    3.0429    0.6366 C.3       1 <1>         0.0470
     18 C18        -2.9303    7.8444   -0.5076 C.3       1 <1>        -0.0630
     19 C19        -1.4126    7.9962   -0.5686 C.3       1 <1>        -0.0475
     20 N1          0.1395   -0.2162   -0.1893 N.2       1 <1>        -0.3134
     21 N2         -0.7769    1.7997    0.3775 N.2       1 <1>        -0.3062
     22 N3          2.4678    0.4591   -0.0195 N.2       1 <1>        -0.2949
     23 N4          0.5602    1.8604    0.3019 N.pl3     1 <1>        -0.2687
     24 Cl1         9.1885    0.7256   -0.0780 Cl        1 <1>        -0.1329
     25 H1          5.1077    3.1010   -1.1911 H         1 <1>         0.1456
     26 H2          4.6517   -0.5138    1.1119 H         1 <1>         0.1581
     27 H3          0.5769    5.0017    2.3770 H         1 <1>         0.1270
     28 H4          0.5161    3.9495   -1.7999 H         1 <1>         0.1167
     29 H5         -0.5966    7.1076    1.8638 H         1 <1>         0.1220
     30 H6         -0.6551    6.0582   -2.3136 H         1 <1>         0.1202
     31 H7          7.5456    2.7807   -1.2139 H         1 <1>         0.1384
     32 H8          7.0884   -0.8359    1.0924 H         1 <1>         0.1389
     33 H9         -1.9830    0.1218   -0.0263 H         1 <1>         0.2920
     34 H10         3.4271    3.5500    0.4637 H         1 <1>         0.1209
     35 H11         2.6489    3.2958   -1.1024 H         1 <1>         0.1137
     36 H12         1.5203    3.0124    1.7477 H         1 <1>         0.1715
     37 H13        -3.2748    7.0622   -1.1927 H         1 <1>         0.0376
     38 H14        -3.4247    8.7804   -0.7858 H         1 <1>         0.0335
     39 H15        -3.2578    7.5748    0.5022 H         1 <1>         0.0340
     40 H16        -1.1018    8.7888    0.1307 H         1 <1>         0.0618
     41 H17        -1.1273    8.3616   -1.5683 H         1 <1>         0.0623
@<TRIPOS>BOND
     1    1    7 ar
     2    1   10 ar
     3    2    8 ar
     4    2   10 ar
     5    3    5 ar
     6    3   11 ar
     7    4    6 ar
     8    4   11 ar
     9    5   12 ar
    10    6   12 ar
    11    7   13 ar
    12    8   13 ar
    13    9   20 1
    14    9   21 2
    15   10   15 1
    16   11   17 1
    17   12   19 1
    18   13   24 1
    19   14   20 2
    20   14   22 1
    21   14   23 1
    22   15   16 1
    23   15   22 2
    24   16   17 1
    25   17   23 1
    26   18   19 1
    27   21   23 1
    28    1   25 1
    29    2   26 1
    30    3   27 1
    31    4   28 1
    32    5   29 1
    33    6   30 1
    34    7   31 1
    35    8   32 1
    36    9   33 1
    37   16   34 1
    38   16   35 1
    39   17   36 1
    40   18   37 1
    41   18   38 1
    42   18   39 1
    43   19   40 1
    44   19   41 1
@<TRIPOS>Similarity
1.3832
@<TRIPOS>ShapeSim
0.9276
@<TRIPOS>PharmSim
0.4555
# END
# Name:		AO-365/43113620
# Created and modified by SHAFTS on Mon Jul  5 00:36:42 2010

# 

@<TRIPOS>MOLECULE
AO-365/43113620
   37    40     0
SMALL
USER_CHARGE


@<TRIPOS>ATOM
      1 C1         -1.0707    4.9763   -0.5671 C.ar      1 <1>        -0.0543
      2 C2          1.0279    5.1024    0.6234 C.ar      1 <1>        -0.0493
      3 C3          5.3491    0.1893    0.3626 C.ar      1 <1>        -0.0636
      4 C4          5.4868    2.4606   -0.4496 C.ar      1 <1>        -0.0511
      5 C5          6.7410    0.1002    0.3496 C.ar      1 <1>        -0.0532
      6 C6          6.8788    2.3714   -0.4626 C.ar      1 <1>        -0.0390
      7 C7         -1.1596    6.3682   -0.5578 C.ar      1 <1>        -0.0376
      8 C8          0.9390    6.4944    0.6327 C.ar      1 <1>        -0.0342
      9 C9          0.0231    4.3432    0.0236 C.ar      1 <1>         0.0129
     10 C10         4.7219    1.3695   -0.0370 C.ar      1 <1>         0.0054
     11 C11         7.5059    1.1913   -0.0629 C.ar      1 <1>        -0.0004
     12 C12        -0.1548    7.1273    0.0421 C.ar      1 <1>         0.0694
     13 C13         0.1156    2.9039    0.0135 C.2       1 <1>         0.1096
     14 C14         0.9371    0.9109   -0.0063 C.2       1 <1>         0.1532
     15 C15         3.2789    1.4621   -0.0235 C.2       1 <1>         0.1227
     16 C16         9.5859   -1.1481    0.2968 C.3       1 <1>        -0.0337
     17 C17         9.4688    0.2415    0.8860 C.3       1 <1>         0.0174
     18 N1         -0.8878    2.0418    0.0164 N.2       1 <1>        -0.2296
     19 N2         -0.3548    0.7522    0.0035 N.2       1 <1>        -0.2364
     20 N3          2.5839    2.5723   -0.0099 N.2       1 <1>        -0.2767
     21 N4          1.2837    2.2137   -0.0010 N.pl3     1 <1>        -0.2251
     22 O1          8.8641    1.1045   -0.0759 O.3       1 <1>        -0.4101
     23 F1         -0.2397    8.4641    0.0501 F         1 <1>        -0.2623
     24 S1          2.3344   -0.0648   -0.0245 S.3       1 <1>         0.0502
     25 H1         -1.8626    4.3988   -1.0383 H         1 <1>         0.1489
     26 H2          1.8872    4.6239    1.0874 H         1 <1>         0.1594
     27 H3          4.7634   -0.6673    0.6863 H         1 <1>         0.1483
     28 H4          5.0078    3.3847   -0.7627 H         1 <1>         0.1605
     29 H5          7.2236   -0.8219    0.6619 H         1 <1>         0.1250
     30 H6          7.4694    3.2246   -0.7852 H         1 <1>         0.1416
     31 H7         -2.0106    6.8609   -1.0185 H         1 <1>         0.1377
     32 H8          1.7212    7.0855    1.0998 H         1 <1>         0.1408
     33 H9          8.6008   -1.5475    0.0403 H         1 <1>         0.0490
     34 H10        10.2075   -1.1342   -0.6045 H         1 <1>         0.0490
     35 H11        10.0692   -1.8284    1.0061 H         1 <1>         0.0588
     36 H12        10.4575    0.6351    1.1403 H         1 <1>         0.0984
     37 H13         8.8469    0.2259    1.7860 H         1 <1>         0.0984
@<TRIPOS>BOND
     1    1    7 ar
     2    1    9 ar
     3    2    8 ar
     4    2    9 ar
     5    3    5 ar
     6    3   10 ar
     7    4    6 ar
     8    4   10 ar
     9    5   11 ar
    10    6   11 ar
    11    7   12 ar
    12    8   12 ar
    13    9   13 1
    14   10   15 1
    15   11   22 1
    16   12   23 1
    17   13   18 2
    18   13   21 1
    19   14   19 2
    20   14   21 1
    21   14   24 1
    22   15   20 2
    23   15   24 1
    24   16   17 1
    25   17   22 1
    26   18   19 1
    27   20   21 1
    28    1   25 1
    29    2   26 1
    30    3   27 1
    31    4   28 1
    32    5   29 1
    33    6   30 1
    34    7   31 1
    35    8   32 1
    36   16   33 1
    37   16   34 1
    38   16   35 1
    39   17   36 1
    40   17   37 1
@<TRIPOS>Similarity
1.3828
@<TRIPOS>ShapeSim
0.8860
@<TRIPOS>PharmSim
0.4968
# END
# Name:		AG-690/36720042
# Created and modified by SHAFTS on Mon Jul  5 00:36:42 2010

# 

@<TRIPOS>MOLECULE
AG-690/36720042
   39    41     0
SMALL
USER_CHARGE


@<TRIPOS>ATOM
      1 C1          7.3997    0.9182   -0.0642 C.ar      1 <1>        -0.1003
      2 C2          6.9244    1.7209   -1.1010 C.ar      1 <1>        -0.0953
      3 C3          6.5549    0.5652    0.9881 C.ar      1 <1>        -0.0895
      4 C4         -0.1294    4.8641   -1.0179 C.ar      1 <1>        -0.0909
      5 C5          5.6042    2.1709   -1.0857 C.ar      1 <1>        -0.0603
      6 C6          5.2346    1.0151    1.0035 C.ar      1 <1>        -0.0514
      7 C7         -0.9685    5.9782   -1.0037 C.ar      1 <1>        -0.0614
      8 C8          0.8546    5.5785    1.0699 C.ar      1 <1>        -0.0452
      9 C9          1.3426    2.1419   -0.0001 C.2       1 <1>         0.0009
     10 C10         0.7822    4.6642    0.0189 C.ar      1 <1>        -0.0768
     11 C11         1.6452    3.5167    0.0046 C.2       1 <1>        -0.0060
     12 C12         4.7592    1.8180   -0.0334 C.ar      1 <1>        -0.0059
     13 C13        -0.8961    6.8925    0.0473 C.ar      1 <1>         0.0288
     14 C14         0.0155    6.6927    1.0841 C.ar      1 <1>         0.0341
     15 C15         3.0177    3.5663   -0.0076 C.2       1 <1>        -0.0059
     16 C16        -2.6224    8.1075   -1.0478 C.3       1 <1>         0.0231
     17 C17         1.0530    7.3017    3.1355 C.3       1 <1>         0.0242
     18 N1          2.4351    1.3735   -0.0143 N.2       1 <1>        -0.3278
     19 N2          3.4376    2.2687   -0.0188 N.pl3     1 <1>        -0.2746
     20 N3          3.8903    4.5993   -0.0098 N.pl3     1 <1>        -0.3801
     21 O1         -1.7199    7.9774    0.0490 O.3       1 <1>        -0.4121
     22 O2          0.0951    7.5787    2.1158 O.3       1 <1>        -0.4092
     23 H1          8.4270    0.5661   -0.0766 H         1 <1>         0.1209
     24 H2          7.5817    1.9948   -1.9211 H         1 <1>         0.1286
     25 H3          6.9254   -0.0611    1.7945 H         1 <1>         0.1298
     26 H4         -0.1982    4.1601   -1.8438 H         1 <1>         0.1176
     27 H5          5.2461    2.7954   -1.9005 H         1 <1>         0.1246
     28 H6          4.5866    0.7319    1.8294 H         1 <1>         0.1395
     29 H7         -1.6771    6.1276   -1.8142 H         1 <1>         0.1225
     30 H8          1.5621    5.4311    1.8834 H         1 <1>         0.1293
     31 H9          0.3731    1.6638    0.0062 H         1 <1>         0.2287
     32 H10        -3.2203    9.0137   -0.9231 H         1 <1>         0.0876
     33 H11        -3.2742    7.2313   -1.0905 H         1 <1>         0.0872
     34 H12        -2.0479    8.1774   -1.9745 H         1 <1>         0.1206
     35 H13         1.0129    8.0848    3.8966 H         1 <1>         0.0878
     36 H14         2.0525    7.2572    2.6954 H         1 <1>         0.0887
     37 H15         0.8158    6.3388    3.5940 H         1 <1>         0.1209
     38 H16         3.5765    5.5791   -0.0491 H         1 <1>         0.2797
     39 H17         4.9079    4.4541   -0.0674 H         1 <1>         0.2676
@<TRIPOS>BOND
     1    1    2 ar
     2    1    3 ar
     3    2    5 ar
     4    3    6 ar
     5    4    7 ar
     6    4   10 ar
     7    5   12 ar
     8    6   12 ar
     9    7   13 ar
    10    8   10 ar
    11    8   14 ar
    12    9   11 1
    13    9   18 2
    14   10   11 1
    15   11   15 2
    16   12   19 1
    17   13   14 ar
    18   13   21 1
    19   14   22 1
    20   15   19 1
    21   15   20 1
    22   16   21 1
    23   17   22 1
    24   18   19 1
    25    1   23 1
    26    2   24 1
    27    3   25 1
    28    4   26 1
    29    5   27 1
    30    6   28 1
    31    7   29 1
    32    8   30 1
    33    9   31 1
    34   16   32 1
    35   16   33 1
    36   16   34 1
    37   17   35 1
    38   17   36 1
    39   17   37 1
    40   20   38 1
    41   20   39 1
@<TRIPOS>Similarity
1.3824
@<TRIPOS>ShapeSim
0.8437
@<TRIPOS>PharmSim
0.5387
# END
# Name:		AO-365/43113729
# Created and modified by SHAFTS on Mon Jul  5 00:36:42 2010

# 

@<TRIPOS>MOLECULE
AO-365/43113729
   40    43     0
SMALL
USER_CHARGE


@<TRIPOS>ATOM
      1 C1         -1.0705    4.9761   -0.5675 C.ar      1 <1>        -0.0669
      2 C2          1.0277    5.1026    0.6235 C.ar      1 <1>        -0.0620
      3 C3          5.3491    0.1893    0.3628 C.ar      1 <1>        -0.0542
      4 C4          5.4869    2.4603   -0.4498 C.ar      1 <1>        -0.0607
      5 C5         -1.1599    6.3681   -0.5579 C.ar      1 <1>        -0.0939
      6 C6          0.9383    6.4946    0.6331 C.ar      1 <1>        -0.0903
      7 C7          6.7410    0.1001    0.3498 C.ar      1 <1>        -0.0405
      8 C8          6.8788    2.3712   -0.4628 C.ar      1 <1>        -0.0522
      9 C9          0.0233    4.3434    0.0232 C.ar      1 <1>         0.0064
     10 C10         4.7220    1.3694   -0.0370 C.ar      1 <1>         0.0051
     11 C11        -0.1555    7.1273    0.0424 C.ar      1 <1>        -0.1121
     12 C12         7.5059    1.1910   -0.0629 C.ar      1 <1>        -0.0006
     13 C13         0.1158    2.9039    0.0133 C.2       1 <1>         0.1082
     14 C14         0.9372    0.9109   -0.0062 C.2       1 <1>         0.1518
     15 C15         3.2791    1.4621   -0.0235 C.2       1 <1>         0.1221
     16 C16        -0.2515    8.6155    0.0531 C.3       1 <1>        -0.0404
     17 C17         9.5859   -1.1484    0.2972 C.3       1 <1>        -0.0337
     18 C18         9.4689    0.2414    0.8861 C.3       1 <1>         0.0173
     19 N1         -0.8877    2.0419    0.0164 N.2       1 <1>        -0.2311
     20 N2         -0.3548    0.7522    0.0038 N.2       1 <1>        -0.2382
     21 N3          2.5841    2.5723   -0.0099 N.2       1 <1>        -0.2767
     22 N4          1.2839    2.2138   -0.0010 N.pl3     1 <1>        -0.2253
     23 O1          8.8642    1.1043   -0.0759 O.3       1 <1>        -0.4103
     24 S1          2.3345   -0.0648   -0.0242 S.3       1 <1>         0.0486
     25 H1         -1.8617    4.3982   -1.0393 H         1 <1>         0.1352
     26 H2          1.8867    4.6242    1.0878 H         1 <1>         0.1455
     27 H3          4.7635   -0.6673    0.6867 H         1 <1>         0.1533
     28 H4          5.0079    3.3844   -0.7630 H         1 <1>         0.1550
     29 H5         -2.0159    6.8527   -1.0202 H         1 <1>         0.1227
     30 H6          1.7257    7.0779    1.1032 H         1 <1>         0.1263
     31 H7          7.2236   -0.8220    0.6623 H         1 <1>         0.1429
     32 H8          7.4695    3.2242   -0.7856 H         1 <1>         0.1234
     33 H9         -0.7813    8.9578    0.9504 H         1 <1>         0.0602
     34 H10         0.7435    9.0791    0.0385 H         1 <1>         0.0555
     35 H11        -0.7876    8.9866   -0.8302 H         1 <1>         0.0564
     36 H12         8.6007   -1.5477    0.0408 H         1 <1>         0.0587
     37 H13        10.2074   -1.1346   -0.6042 H         1 <1>         0.0491
     38 H14        10.0691   -1.8284    1.0065 H         1 <1>         0.0491
     39 H15        10.4576    0.6350    1.1403 H         1 <1>         0.0982
     40 H16         8.8470    0.2260    1.7860 H         1 <1>         0.0982
@<TRIPOS>BOND
     1    1    5 ar
     2    1    9 ar
     3    2    6 ar
     4    2    9 ar
     5    3    7 ar
     6    3   10 ar
     7    4    8 ar
     8    4   10 ar
     9    5   11 ar
    10    6   11 ar
    11    7   12 ar
    12    8   12 ar
    13    9   13 1
    14   10   15 1
    15   11   16 1
    16   12   23 1
    17   13   19 2
    18   13   22 1
    19   14   20 2
    20   14   22 1
    21   14   24 1
    22   15   21 2
    23   15   24 1
    24   17   18 1
    25   18   23 1
    26   19   20 1
    27   21   22 1
    28    1   25 1
    29    2   26 1
    30    3   27 1
    31    4   28 1
    32    5   29 1
    33    6   30 1
    34    7   31 1
    35    8   32 1
    36   16   33 1
    37   16   34 1
    38   16   35 1
    39   17   36 1
    40   17   37 1
    41   17   38 1
    42   18   39 1
    43   18   40 1
@<TRIPOS>Similarity
1.3819
@<TRIPOS>ShapeSim
0.8851
@<TRIPOS>PharmSim
0.4968
# END
# Name:		AO-022/42667913
# Created and modified by SHAFTS on Mon Jul  5 00:36:42 2010

# 

@<TRIPOS>MOLECULE
AO-022/42667913
   48    50     0
SMALL
USER_CHARGE


@<TRIPOS>ATOM
      1 C1          0.1945    6.2672    1.2871 C.ar      1 <1>        -0.1029
      2 C2          5.4468    0.8238    0.9217 C.ar      1 <1>        -0.0732
      3 C3          0.9259    5.1205    0.9780 C.ar      1 <1>        -0.0972
      4 C4         -0.6674    6.8212    0.3404 C.ar      1 <1>        -0.1040
      5 C5          6.7871    0.4382    0.8998 C.ar      1 <1>        -0.0515
      6 C6          5.8217    2.2360   -1.0024 C.ar      1 <1>        -0.0295
      7 C7         -0.0662    5.0814   -1.2246 C.ar      1 <1>        -0.0934
      8 C8          4.9640    1.7227   -0.0295 C.ar      1 <1>        -0.0301
      9 C9          0.7956    4.5276   -0.2778 C.ar      1 <1>        -0.0784
     10 C10        -0.7976    6.2282   -0.9154 C.ar      1 <1>        -0.1140
     11 C11         7.6447    0.9515   -0.0731 C.ar      1 <1>         0.0365
     12 C12         7.1621    1.8504   -1.0243 C.ar      1 <1>         0.0418
     13 C13         3.5424    2.1298   -0.0074 C.2       1 <1>         0.0132
     14 C14         3.0978    3.4889   -0.4922 C.3       1 <1>         0.0369
     15 C15         1.5851    3.2875   -0.6105 C.3       1 <1>         0.0869
     16 C16        -1.7187    6.8209   -1.9280 C.3       1 <1>        -0.0432
     17 C17         9.3643   -0.3550    0.9230 C.3       1 <1>         0.0262
     18 C18         8.0885    1.6285   -3.2033 C.3       1 <1>         0.0252
     19 C19         0.2748    0.6188   -1.5904 C.3       1 <1>         0.2628
     20 N1          2.5920    1.3683    0.4412 N.2       1 <1>        -0.2769
     21 N2          1.3454    2.1361    0.3066 N.pl3     1 <1>        -0.0750
     22 O1         -1.2083    2.0460    0.0192 O.2       1 <1>        -0.0886
     23 O2          0.0091    0.0332    0.9423 O.2       1 <1>        -0.0886
     24 O3          8.9516    0.5670   -0.0840 O.3       1 <1>        -0.4062
     25 O4          7.9889    2.3569   -1.9812 O.3       1 <1>        -0.4079
     26 S1         -0.0423    1.1851    0.0629 S.o2      1 <1>        -0.0331
     27 H1          0.2959    6.7289    2.2651 H         1 <1>         0.1175
     28 H2          4.7876    0.4174    1.6844 H         1 <1>         0.1361
     29 H3          1.5946    4.6958    1.7222 H         1 <1>         0.1134
     30 H4         -1.2327    7.7153    0.5896 H         1 <1>         0.1174
     31 H5          7.1571   -0.2621    1.6437 H         1 <1>         0.1288
     32 H6          5.4479    2.9352   -1.7470 H         1 <1>         0.1445
     33 H7         -0.1690    4.6191   -2.2035 H         1 <1>         0.1227
     34 H8          3.3750    4.2350    0.2612 H         1 <1>         0.1048
     35 H9          3.5580    3.7480   -1.4497 H         1 <1>         0.1046
     36 H10         1.3395    2.9785   -1.6488 H         1 <1>         0.1403
     37 H11        -1.1871    7.5574   -2.5428 H         1 <1>         0.0571
     38 H12        -2.1330    6.0492   -2.5896 H         1 <1>         0.0535
     39 H13        -2.5711    7.3187   -1.4477 H         1 <1>         0.0533
     40 H14        10.4271   -0.5777    0.8007 H         1 <1>         0.0898
     41 H15         8.7769   -1.2729    0.8405 H         1 <1>         0.1226
     42 H16         9.1991    0.0940    1.9052 H         1 <1>         0.0899
     43 H17         8.7791    2.1402   -3.8781 H         1 <1>         0.0902
     44 H18         7.1007    1.5524   -3.6648 H         1 <1>         0.0892
     45 H19         8.4669    0.6261   -2.9899 H         1 <1>         0.1226
     46 H20        -0.5520   -0.0228   -1.8991 H         1 <1>         0.1744
     47 H21         0.3483    1.4891   -2.2443 H         1 <1>         0.1760
     48 H22         1.2122    0.0608   -1.5892 H         1 <1>         0.1718
@<TRIPOS>BOND
     1    1    3 ar
     2    1    4 ar
     3    2    5 ar
     4    2    8 ar
     5    3    9 ar
     6    4   10 ar
     7    5   11 ar
     8    6    8 ar
     9    6   12 ar
    10    7    9 ar
    11    7   10 ar
    12    8   13 1
    13    9   15 1
    14   10   16 1
    15   11   12 ar
    16   11   24 1
    17   12   25 1
    18   13   14 1
    19   13   20 2
    20   14   15 1
    21   15   21 1
    22   17   24 1
    23   18   25 1
    24   19   26 1
    25   20   21 1
    26   21   26 1
    27   22   26 2
    28   23   26 2
    29    1   27 1
    30    2   28 1
    31    3   29 1
    32    4   30 1
    33    5   31 1
    34    6   32 1
    35    7   33 1
    36   14   34 1
    37   14   35 1
    38   15   36 1
    39   16   37 1
    40   16   38 1
    41   16   39 1
    42   17   40 1
    43   17   41 1
    44   17   42 1
    45   18   43 1
    46   18   44 1
    47   18   45 1
    48   19   46 1
    49   19   47 1
    50   19   48 1
@<TRIPOS>Similarity
1.3817
@<TRIPOS>ShapeSim
0.8895
@<TRIPOS>PharmSim
0.4922
# END
# Name:		AO-365/43301083
# Created and modified by SHAFTS on Mon Jul  5 00:36:42 2010

# 

@<TRIPOS>MOLECULE
AO-365/43301083
   45    48     0
SMALL
USER_CHARGE


@<TRIPOS>ATOM
      1 C1         -1.0201    5.0578   -0.5682 C.ar      1 <1>        -0.0640
      2 C2          1.0803    5.1217    0.6240 C.ar      1 <1>        -0.0592
      3 C3          5.2519    0.0803    0.3681 C.ar      1 <1>        -0.0543
      4 C4          5.4584    2.3458   -0.4456 C.ar      1 <1>        -0.0608
      5 C5         -1.0676    6.4519   -0.5593 C.ar      1 <1>        -0.0615
      6 C6          1.0329    6.5158    0.6328 C.ar      1 <1>        -0.0581
      7 C7          6.6405   -0.0507    0.3558 C.ar      1 <1>        -0.0409
      8 C8          6.8471    2.2148   -0.4578 C.ar      1 <1>        -0.0527
      9 C9          0.0538    4.3927    0.0235 C.ar      1 <1>         0.0060
     10 C10         4.6608    1.2785   -0.0328 C.ar      1 <1>         0.0045
     11 C11        -0.0411    7.1808    0.0412 C.ar      1 <1>        -0.0679
     12 C12         7.4381    1.0164   -0.0571 C.ar      1 <1>        -0.0012
     13 C13         0.1028    2.9512    0.0144 C.2       1 <1>         0.1031
     14 C14         0.8638    0.9342   -0.0036 C.2       1 <1>         0.1485
     15 C15         3.2213    1.4146   -0.0199 C.2       1 <1>         0.1203
     16 C16         9.0272    0.5027    2.2825 C.3       1 <1>        -0.0338
     17 C17        -1.2005    9.2910   -0.5617 C.3       1 <1>        -0.0349
     18 C18         0.9658    9.3564    0.6839 C.3       1 <1>        -0.0351
     19 C19         9.3711    0.0086    0.8934 C.3       1 <1>         0.0171
     20 N1         -0.9261    2.1198    0.0174 N.2       1 <1>        -0.2353
     21 N2         -0.4323    0.8146    0.0058 N.2       1 <1>        -0.2417
     22 N3          2.5601    2.5453   -0.0074 N.2       1 <1>        -0.2771
     23 N4          1.2496    2.2260    0.0011 N.pl3     1 <1>        -0.2265
     24 N5         -0.0890    8.5903    0.0502 N.pl3     1 <1>        -0.4221
     25 O1          8.7931    0.8888   -0.0692 O.3       1 <1>        -0.4106
     26 S1          2.2312   -0.0832   -0.0204 S.3       1 <1>         0.0444
     27 H1         -1.8281    4.5037   -1.0401 H         1 <1>         0.1420
     28 H2          1.9242    4.6178    1.0892 H         1 <1>         0.1524
     29 H3          4.6405   -0.7580    0.6921 H         1 <1>         0.1530
     30 H4          5.0077    3.2837   -0.7596 H         1 <1>         0.1548
     31 H5         -1.9092    6.9601   -1.0230 H         1 <1>         0.1178
     32 H6          1.8382    7.0738    1.1035 H         1 <1>         0.1211
     33 H7          7.0949   -0.9867    0.6691 H         1 <1>         0.1424
     34 H8          7.4633    3.0495   -0.7808 H         1 <1>         0.1228
     35 H9          9.4226    1.5087    2.4477 H         1 <1>         0.0585
     36 H10         7.9422    0.5209    2.4280 H         1 <1>         0.0490
     37 H11         9.4392   -0.1682    3.0436 H         1 <1>         0.0490
     38 H12        -1.0667   10.3709   -0.4582 H         1 <1>         0.0808
     39 H13        -2.1392    9.0048   -0.0796 H         1 <1>         0.0928
     40 H14        -1.2633    9.0444   -1.6250 H         1 <1>         0.0947
     41 H15         0.7601   10.4262    0.5922 H         1 <1>         0.0802
     42 H16         1.9268    9.1409    0.2092 H         1 <1>         0.0931
     43 H17         1.0336    9.1008    1.7447 H         1 <1>         0.0936
     44 H18         8.9728   -0.9980    0.7347 H         1 <1>         0.0980
     45 H19        10.4555   -0.0082    0.7494 H         1 <1>         0.0980
@<TRIPOS>BOND
     1    1    5 ar
     2    1    9 ar
     3    2    6 ar
     4    2    9 ar
     5    3    7 ar
     6    3   10 ar
     7    4    8 ar
     8    4   10 ar
     9    5   11 ar
    10    6   11 ar
    11    7   12 ar
    12    8   12 ar
    13    9   13 1
    14   10   15 1
    15   11   24 1
    16   12   25 1
    17   13   20 2
    18   13   23 1
    19   14   21 2
    20   14   23 1
    21   14   26 1
    22   15   22 2
    23   15   26 1
    24   16   19 1
    25   17   24 1
    26   18   24 1
    27   19   25 1
    28   20   21 1
    29   22   23 1
    30    1   27 1
    31    2   28 1
    32    3   29 1
    33    4   30 1
    34    5   31 1
    35    6   32 1
    36    7   33 1
    37    8   34 1
    38   16   35 1
    39   16   36 1
    40   16   37 1
    41   17   38 1
    42   17   39 1
    43   17   40 1
    44   18   41 1
    45   18   42 1
    46   18   43 1
    47   19   44 1
    48   19   45 1
@<TRIPOS>Similarity
1.3816
@<TRIPOS>ShapeSim
0.8583
@<TRIPOS>PharmSim
0.5234
# END
# Name:		AO-365/43301260
# Created and modified by SHAFTS on Mon Jul  5 00:36:42 2010

# 

@<TRIPOS>MOLECULE
AO-365/43301260
   37    40     0
SMALL
USER_CHARGE


@<TRIPOS>ATOM
      1 C1         -1.0705    4.9768   -0.5677 C.ar      1 <1>        -0.0557
      2 C2          1.0278    5.1018    0.6233 C.ar      1 <1>        -0.0506
      3 C3          5.3489    0.1895    0.3629 C.ar      1 <1>        -0.0541
      4 C4          5.4867    2.4605   -0.4499 C.ar      1 <1>        -0.0606
      5 C5          6.7409    0.1004    0.3499 C.ar      1 <1>        -0.0402
      6 C6          6.8786    2.3715   -0.4629 C.ar      1 <1>        -0.0519
      7 C7         -1.1591    6.3688   -0.5577 C.ar      1 <1>        -0.0624
      8 C8          0.9392    6.4938    0.6332 C.ar      1 <1>        -0.0588
      9 C9          0.0229    4.3433    0.0229 C.ar      1 <1>         0.0130
     10 C10         4.7218    1.3695   -0.0370 C.ar      1 <1>         0.0054
     11 C11         7.5057    1.1914   -0.0629 C.ar      1 <1>        -0.0003
     12 C12        -0.1542    7.1273    0.0428 C.ar      1 <1>        -0.0088
     13 C13         0.1154    2.9038    0.0132 C.2       1 <1>         0.1109
     14 C14         0.9370    0.9108   -0.0061 C.2       1 <1>         0.1541
     15 C15         3.2789    1.4621   -0.0234 C.2       1 <1>         0.1231
     16 C16         9.5859   -1.1477    0.2974 C.3       1 <1>        -0.0337
     17 C17         9.4688    0.2420    0.8861 C.3       1 <1>         0.0175
     18 N1         -0.8879    2.0417    0.0164 N.2       1 <1>        -0.2288
     19 N2         -0.3549    0.7521    0.0039 N.2       1 <1>        -0.2358
     20 N3          2.5839    2.5723   -0.0100 N.2       1 <1>        -0.2770
     21 N4          1.2836    2.2137   -0.0011 N.pl3     1 <1>        -0.2250
     22 O1          8.8639    1.1048   -0.0759 O.3       1 <1>        -0.4100
     23 S1          2.3345   -0.0648   -0.0240 S.3       1 <1>         0.0516
     24 Cl1        -0.2619    8.8448    0.0532 Cl        1 <1>        -0.1352
     25 H1         -1.8618    4.3994   -1.0395 H         1 <1>         0.1457
     26 H2          1.8866    4.6224    1.0876 H         1 <1>         0.1567
     27 H3          4.7633   -0.6670    0.6870 H         1 <1>         0.1534
     28 H4          5.0075    3.3846   -0.7632 H         1 <1>         0.1553
     29 H5          7.2235   -0.8214    0.6625 H         1 <1>         0.1431
     30 H6          7.4692    3.2244   -0.7859 H         1 <1>         0.1237
     31 H7         -2.0173    6.8489   -1.0213 H         1 <1>         0.1389
     32 H8          1.7293    7.0722    1.1052 H         1 <1>         0.1425
     33 H9          8.6008   -1.5473    0.0411 H         1 <1>         0.0588
     34 H10        10.2074   -1.1340   -0.6040 H         1 <1>         0.0491
     35 H11        10.0692   -1.8277    1.0069 H         1 <1>         0.0491
     36 H12        10.4575    0.6357    1.1402 H         1 <1>         0.0984
     37 H13         8.8469    0.2266    1.7862 H         1 <1>         0.0984
@<TRIPOS>BOND
     1    1    7 ar
     2    1    9 ar
     3    2    8 ar
     4    2    9 ar
     5    3    5 ar
     6    3   10 ar
     7    4    6 ar
     8    4   10 ar
     9    5   11 ar
    10    6   11 ar
    11    7   12 ar
    12    8   12 ar
    13    9   13 1
    14   10   15 1
    15   11   22 1
    16   12   24 1
    17   13   18 2
    18   13   21 1
    19   14   19 2
    20   14   21 1
    21   14   23 1
    22   15   20 2
    23   15   23 1
    24   16   17 1
    25   17   22 1
    26   18   19 1
    27   20   21 1
    28    1   25 1
    29    2   26 1
    30    3   27 1
    31    4   28 1
    32    5   29 1
    33    6   30 1
    34    7   31 1
    35    8   32 1
    36   16   33 1
    37   16   34 1
    38   16   35 1
    39   17   36 1
    40   17   37 1
@<TRIPOS>Similarity
1.3809
@<TRIPOS>ShapeSim
0.8841
@<TRIPOS>PharmSim
0.4968
# END
# Name:		AF-399/34184060
# Created and modified by SHAFTS on Mon Jul  5 00:36:42 2010

# 

@<TRIPOS>MOLECULE
AF-399/34184060
   37    40     0
SMALL
USER_CHARGE


@<TRIPOS>ATOM
      1 C1          7.5075    1.0084   -0.0644 C.ar      1 <1>        -0.1064
      2 C2          6.5525    0.1944    0.5445 C.ar      1 <1>        -0.0990
      3 C3          7.1229    2.2104   -0.6585 C.ar      1 <1>        -0.1022
      4 C4          0.1304    6.6505    1.0822 C.ar      1 <1>        -0.0686
      5 C5          5.2128    0.5824    0.5594 C.ar      1 <1>        -0.0766
      6 C6          5.7831    2.5984   -0.6435 C.ar      1 <1>        -0.0813
      7 C7          0.9566    5.5268    1.0678 C.ar      1 <1>        -0.0549
      8 C8         -0.7800    6.8602    0.0463 C.ar      1 <1>        -0.0367
      9 C9         -0.0377    4.8224   -1.0184 C.ar      1 <1>        -0.0038
     10 C10         4.8281    1.7844   -0.0346 C.ar      1 <1>        -0.0419
     11 C11         0.8726    4.6128    0.0174 C.ar      1 <1>        -0.0004
     12 C12        -0.8640    5.9462   -1.0040 C.ar      1 <1>         0.0774
     13 C13         3.4536    2.1826   -0.0196 C.2       1 <1>         0.0106
     14 C14         2.3739    1.3319   -0.0140 C.2       1 <1>         0.0048
     15 C15         1.7303    3.4469    0.0036 C.2       1 <1>         0.0368
     16 C16         2.1589   -0.0724   -0.0194 C.2       1 <1>        -0.0516
     17 C17         0.8961   -0.5436   -0.0092 C.2       1 <1>        -0.0791
     18 C18        -0.2519    0.3525    0.0071 C.2       1 <1>        -0.0653
     19 C19        -0.0466    1.6805    0.0120 C.2       1 <1>        -0.0259
     20 N1          3.0454    3.4940   -0.0087 N.2       1 <1>        -0.3487
     21 N2          1.2604    2.1581    0.0014 N.pl3     1 <1>        -0.3071
     22 N3         -1.7909    6.1605   -2.0581 N.pl3     1 <1>        -0.0560
     23 O1         -2.5245    7.1780   -2.0250 O.3       1 <1>        -0.1672
     24 O2         -1.8511    5.3268   -2.9938 O.2       1 <1>        -0.2601
     25 H1          8.5509    0.7069   -0.0753 H         1 <1>         0.1157
     26 H2          6.8519   -0.7409    1.0081 H         1 <1>         0.1191
     27 H3          7.8669    2.8447   -1.1314 H         1 <1>         0.1175
     28 H4          0.1959    7.3623    1.9000 H         1 <1>         0.1495
     29 H5          4.4800   -0.0631    1.0382 H         1 <1>         0.1303
     30 H6          5.4994    3.5386   -1.1110 H         1 <1>         0.1214
     31 H7          1.6612    5.3775    1.8828 H         1 <1>         0.1477
     32 H8         -1.4180    7.7402    0.0702 H         1 <1>         0.1676
     33 H9         -0.1047    4.1105   -1.8396 H         1 <1>         0.1844
     34 H10         3.0035   -0.7526   -0.0321 H         1 <1>         0.1608
     35 H11         0.7015   -1.6106   -0.0136 H         1 <1>         0.1404
     36 H12        -1.2483   -0.0725    0.0143 H         1 <1>         0.1514
     37 H13        -0.8621    2.3934    0.0235 H         1 <1>         0.1975
@<TRIPOS>BOND
     1    1    2 ar
     2    1    3 ar
     3    2    5 ar
     4    3    6 ar
     5    4    7 ar
     6    4    8 ar
     7    5   10 ar
     8    6   10 ar
     9    7   11 ar
    10    8   12 ar
    11    9   11 ar
    12    9   12 ar
    13   10   13 1
    14   11   15 1
    15   12   22 1
    16   13   14 2
    17   13   20 1
    18   14   16 1
    19   14   21 1
    20   15   20 2
    21   15   21 1
    22   16   17 2
    23   17   18 1
    24   18   19 2
    25   19   21 1
    26   22   23 1
    27   22   24 2
    28    1   25 1
    29    2   26 1
    30    3   27 1
    31    4   28 1
    32    5   29 1
    33    6   30 1
    34    7   31 1
    35    8   32 1
    36    9   33 1
    37   16   34 1
    38   17   35 1
    39   18   36 1
    40   19   37 1
@<TRIPOS>Similarity
1.3798
@<TRIPOS>ShapeSim
0.9118
@<TRIPOS>PharmSim
0.4680
# END
# Name:		AG-927/31201030
# Created and modified by SHAFTS on Mon Jul  5 00:36:42 2010

# 

@<TRIPOS>MOLECULE
AG-927/31201030
   45    47     0
SMALL
USER_CHARGE


@<TRIPOS>ATOM
      1 C1          0.4511    5.1438    1.3115 C.ar      1 <1>        -0.0950
      2 C2          0.4257    4.6834   -1.0601 C.ar      1 <1>        -0.0813
      3 C3          5.5075    2.5903   -0.6882 C.ar      1 <1>        -0.0834
      4 C4          5.0963    0.4270    0.3058 C.ar      1 <1>        -0.0761
      5 C5         -0.4684    6.1752    1.1212 C.ar      1 <1>        -0.0694
      6 C6         -0.4940    5.7147   -1.2505 C.ar      1 <1>        -0.0543
      7 C7          6.8667    2.4639   -0.4014 C.ar      1 <1>        -0.0676
      8 C8          6.4555    0.3005    0.5926 C.ar      1 <1>        -0.0557
      9 C9          0.8982    4.3979    0.2208 C.ar      1 <1>        -0.0672
     10 C10         4.6223    1.5719   -0.3345 C.ar      1 <1>        -0.0405
     11 C11        -0.9411    6.4606   -0.1598 C.ar      1 <1>        -0.0133
     12 C12         7.3406    1.3189    0.2391 C.ar      1 <1>        -0.0150
     13 C13         0.1562    1.5488   -0.2616 C.2       1 <1>         0.1883
     14 C14         1.8922    3.2820    0.4266 C.3       1 <1>         0.0863
     15 C15         3.1529    1.7083   -0.6451 C.3       1 <1>         0.1032
     16 C16         1.2939    1.9040    0.6493 C.3       1 <1>         0.1709
     17 C17        -2.2809    7.7043   -1.6809 C.3       1 <1>         0.0234
     18 C18         9.0839   -0.0013    1.1739 C.3       1 <1>         0.0236
     19 C19        -2.0796    2.1088   -0.7823 C.3       1 <1>         0.0365
     20 O1          0.2104    0.6760   -1.1174 O.2       1 <1>        -0.4501
     21 O2          2.7864    3.0942   -0.6787 O.3       1 <1>        -0.4004
     22 O3          2.3477    1.0053    0.3123 O.3       1 <1>        -0.3739
     23 O4         -1.8394    7.4662   -0.3452 O.3       1 <1>        -0.4176
     24 O5          8.6671    1.1951    0.5176 O.3       1 <1>        -0.4181
     25 O6         -0.9168    2.3421    0.0186 O.3       1 <1>        -0.3549
     26 H1          0.8139    4.9284    2.3129 H         1 <1>         0.1230
     27 H2          0.7686    4.1074   -1.9159 H         1 <1>         0.1400
     28 H3          5.1469    3.4858   -1.1873 H         1 <1>         0.1414
     29 H4          4.4139   -0.3715    0.5853 H         1 <1>         0.1402
     30 H5         -0.8133    6.7526    1.9749 H         1 <1>         0.1107
     31 H6         -0.8585    5.9318   -2.2506 H         1 <1>         0.1307
     32 H7          7.5514    3.2606   -0.6796 H         1 <1>         0.1126
     33 H8          6.8185   -0.5938    1.0913 H         1 <1>         0.1297
     34 H9          2.5261    3.5471    1.3051 H         1 <1>         0.1634
     35 H10         2.9626    1.2809   -1.6530 H         1 <1>         0.1831
     36 H11         0.9698    1.7442    1.6816 H         1 <1>         0.2103
     37 H12        -2.9944    8.5320   -1.6874 H         1 <1>         0.0882
     38 H13        -2.7512    6.8007   -2.0766 H         1 <1>         0.1219
     39 H14        -1.4187    7.9648   -2.2992 H         1 <1>         0.0889
     40 H15        10.1641    0.0287    1.3365 H         1 <1>         0.1217
     41 H16         8.8211   -0.8657    0.5589 H         1 <1>         0.0893
     42 H17         8.5746   -0.0739    2.1377 H         1 <1>         0.0894
     43 H18        -2.8757    2.7927   -0.4780 H         1 <1>         0.0954
     44 H19        -2.4070    1.0735   -0.6582 H         1 <1>         0.0969
     45 H20        -1.8306    2.2868   -1.8311 H         1 <1>         0.1245
@<TRIPOS>BOND
     1    1    5 ar
     2    1    9 ar
     3    2    6 ar
     4    2    9 ar
     5    3    7 ar
     6    3   10 ar
     7    4    8 ar
     8    4   10 ar
     9    5   11 ar
    10    6   11 ar
    11    7   12 ar
    12    8   12 ar
    13    9   14 1
    14   10   15 1
    15   11   23 1
    16   12   24 1
    17   13   16 1
    18   13   20 2
    19   13   25 1
    20   14   16 1
    21   14   21 1
    22   15   21 1
    23   15   22 1
    24   16   22 1
    25   17   23 1
    26   18   24 1
    27   19   25 1
    28    1   26 1
    29    2   27 1
    30    3   28 1
    31    4   29 1
    32    5   30 1
    33    6   31 1
    34    7   32 1
    35    8   33 1
    36   14   34 1
    37   15   35 1
    38   16   36 1
    39   17   37 1
    40   17   38 1
    41   17   39 1
    42   18   40 1
    43   18   41 1
    44   18   42 1
    45   19   43 1
    46   19   44 1
    47   19   45 1
@<TRIPOS>Similarity
1.3797
@<TRIPOS>ShapeSim
0.8720
@<TRIPOS>PharmSim
0.5077
# END
# Name:		AO-365/43113460
# Created and modified by SHAFTS on Mon Jul  5 00:36:42 2010

# 

@<TRIPOS>MOLECULE
AO-365/43113460
   36    39     0
SMALL
USER_CHARGE


@<TRIPOS>ATOM
      1 C1          5.2344    0.2226    0.3691 C.ar      1 <1>        -0.0635
      2 C2          5.4525    2.4870   -0.4446 C.ar      1 <1>        -0.0509
      3 C3          6.6222    0.0845    0.3569 C.ar      1 <1>        -0.0530
      4 C4          6.8405    2.3489   -0.4568 C.ar      1 <1>        -0.0387
      5 C5         -1.0073    5.2308   -0.5645 C.ar      1 <1>        -0.0338
      6 C6          1.0840    5.2839    0.6222 C.ar      1 <1>        -0.0289
      7 C7         -1.0006    6.6160   -0.5293 C.ar      1 <1>        -0.0319
      8 C8          0.9971    6.6666    0.6041 C.ar      1 <1>        -0.0286
      9 C9          0.0585    4.5597    0.0246 C.ar      1 <1>         0.0169
     10 C10         4.6494    1.4238   -0.0317 C.ar      1 <1>         0.0058
     11 C11         7.4254    1.1476   -0.0561 C.ar      1 <1>        -0.0000
     12 C12         0.1001    3.1199    0.0155 C.2       1 <1>         0.1148
     13 C13         0.8508    1.0991   -0.0024 C.2       1 <1>         0.1560
     14 C14         3.2024    1.5682   -0.0188 C.2       1 <1>         0.1241
     15 C15         9.4215   -1.2634    0.3064 C.3       1 <1>        -0.0337
     16 C16         9.3532    0.1298    0.8945 C.3       1 <1>         0.0175
     17 N1         -0.0223    7.3538    0.0419 N.ar      1 <1>        -0.3973
     18 N2         -0.9331    2.2938    0.0185 N.2       1 <1>        -0.2250
     19 N3         -0.4459    0.9861    0.0069 N.2       1 <1>        -0.2332
     20 N4          2.5552    2.7014   -0.0063 N.2       1 <1>        -0.2756
     21 N5          1.2431    2.3889    0.0022 N.pl3     1 <1>        -0.2231
     22 O1          8.7797    1.0130   -0.0684 O.3       1 <1>        -0.4099
     23 S1          2.2129    0.0747   -0.0193 S.3       1 <1>         0.0531
     24 H1          4.6186   -0.6125    0.6932 H         1 <1>         0.1484
     25 H2          5.0065    3.4272   -0.7586 H         1 <1>         0.1608
     26 H3          7.0720   -0.8538    0.6701 H         1 <1>         0.1253
     27 H4          7.4610    3.1803   -0.7798 H         1 <1>         0.1420
     28 H5         -1.8258    4.7003   -1.0403 H         1 <1>         0.1412
     29 H6          1.9319    4.7958    1.0919 H         1 <1>         0.1516
     30 H7         -1.8089    7.1867   -0.9744 H         1 <1>         0.2062
     31 H8          1.7713    7.2777    1.0567 H         1 <1>         0.2094
     32 H9          8.4230   -1.6280    0.0497 H         1 <1>         0.0490
     33 H10        10.0435   -1.2721   -0.5946 H         1 <1>         0.0589
     34 H11         9.8801   -1.9598    1.0164 H         1 <1>         0.0490
     35 H12        10.3550    0.4886    1.1490 H         1 <1>         0.0985
     36 H13         8.7308    0.1369    1.7942 H         1 <1>         0.0985
@<TRIPOS>BOND
     1    1    3 ar
     2    1   10 ar
     3    2    4 ar
     4    2   10 ar
     5    3   11 ar
     6    4   11 ar
     7    5    7 ar
     8    5    9 ar
     9    6    8 ar
    10    6    9 ar
    11    7   17 ar
    12    8   17 ar
    13    9   12 1
    14   10   14 1
    15   11   22 1
    16   12   18 2
    17   12   21 1
    18   13   19 2
    19   13   21 1
    20   13   23 1
    21   14   20 2
    22   14   23 1
    23   15   16 1
    24   16   22 1
    25   18   19 1
    26   20   21 1
    27    1   24 1
    28    2   25 1
    29    3   26 1
    30    4   27 1
    31    5   28 1
    32    6   29 1
    33    7   30 1
    34    8   31 1
    35   15   32 1
    36   15   33 1
    37   15   34 1
    38   16   35 1
    39   16   36 1
@<TRIPOS>Similarity
1.3797
@<TRIPOS>ShapeSim
0.8861
@<TRIPOS>PharmSim
0.4936
# END
# Name:		AB-131/42301082
# Created and modified by SHAFTS on Mon Jul  5 00:36:42 2010

# 

@<TRIPOS>MOLECULE
AB-131/42301082
   33    35     0
SMALL
USER_CHARGE


@<TRIPOS>ATOM
      1 C1         -0.6416    7.1176    0.0467 C.ar      1 <1>        -0.0889
      2 C2          7.3411    0.9241   -0.0608 C.ar      1 <1>        -0.0826
      3 C3         -0.2885    6.5024    1.2477 C.ar      1 <1>        -0.0901
      4 C4         -0.3080    6.5188   -1.1681 C.ar      1 <1>        -0.0857
      5 C5          6.6793    1.1085    1.1531 C.ar      1 <1>        -0.0799
      6 C6          6.6640    1.1311   -1.2628 C.ar      1 <1>        -0.0820
      7 C7          0.3983    5.2884    1.2339 C.ar      1 <1>        -0.0826
      8 C8          0.3788    5.3048   -1.1819 C.ar      1 <1>        -0.0779
      9 C9          5.3404    1.4997    1.1651 C.ar      1 <1>        -0.0688
     10 C10         5.3252    1.5223   -1.2507 C.ar      1 <1>        -0.0719
     11 C11         0.7319    4.6895    0.0191 C.ar      1 <1>        -0.0436
     12 C12         4.6634    1.7066   -0.0367 C.ar      1 <1>        -0.0113
     13 C13         1.4392    3.4398    0.0046 C.2       1 <1>         0.0151
     14 C14         0.8275    2.2088    0.0011 C.2       1 <1>         0.1142
     15 C15         3.2826    2.1110   -0.0240 C.2       1 <1>         0.1078
     16 C16         3.6766    4.5004   -0.0152 C.3       1 <1>         0.0217
     17 N1          2.8125    3.3398   -0.0099 N.pl3     1 <1>        -0.3097
     18 S1          2.0142    0.9636   -0.0204 S.3       1 <1>         0.0511
     19 S2         -0.8872    1.8385    0.0151 S.3       1 <1>        -0.1001
     20 H1         -1.1772    8.0624    0.0573 H         1 <1>         0.1399
     21 H2          8.3837    0.6202   -0.0702 H         1 <1>         0.1485
     22 H3         -0.5491    6.9678    2.1936 H         1 <1>         0.1335
     23 H4         -0.5841    6.9973   -2.1031 H         1 <1>         0.1353
     24 H5          7.2066    0.9471    2.0889 H         1 <1>         0.1413
     25 H6          7.1797    0.9887   -2.2080 H         1 <1>         0.1399
     26 H7          0.6666    4.8213    2.1786 H         1 <1>         0.1287
     27 H8          0.6315    4.8508   -2.1374 H         1 <1>         0.1307
     28 H9          4.8394    1.6418    2.1197 H         1 <1>         0.1456
     29 H10         4.8112    1.6786   -2.1960 H         1 <1>         0.1396
     30 H11         3.8987    4.7811    1.0181 H         1 <1>         0.1273
     31 H12         4.6098    4.2793   -0.5409 H         1 <1>         0.1293
     32 H13         3.1767    5.3299   -0.5234 H         1 <1>         0.1317
     33 H14        -0.8006    0.4958    0.0039 H         1 <1>         0.1939
@<TRIPOS>BOND
     1    1    3 ar
     2    1    4 ar
     3    2    5 ar
     4    2    6 ar
     5    3    7 ar
     6    4    8 ar
     7    5    9 ar
     8    6   10 ar
     9    7   11 ar
    10    8   11 ar
    11    9   12 ar
    12   10   12 ar
    13   11   13 1
    14   12   15 1
    15   13   14 2
    16   13   17 1
    17   14   18 1
    18   14   19 1
    19   15   17 2
    20   15   18 1
    21   16   17 1
    22    1   20 1
    23    2   21 1
    24    3   22 1
    25    4   23 1
    26    5   24 1
    27    6   25 1
    28    7   26 1
    29    8   27 1
    30    9   28 1
    31   10   29 1
    32   16   30 1
    33   16   31 1
    34   16   32 1
    35   19   33 1
@<TRIPOS>Similarity
1.3793
@<TRIPOS>ShapeSim
0.8316
@<TRIPOS>PharmSim
0.5478
# END
# Name:		AO-365/43301005
# Created and modified by SHAFTS on Mon Jul  5 00:36:42 2010

# 

@<TRIPOS>MOLECULE
AO-365/43301005
   36    39     0
SMALL
USER_CHARGE


@<TRIPOS>ATOM
      1 C1          0.9163    6.5209    0.6291 C.ar      1 <1>        -0.0570
      2 C2          1.0066    5.1334    0.6313 C.ar      1 <1>        -0.0493
      3 C3          5.2507    0.1232    0.3761 C.ar      1 <1>        -0.0636
      4 C4          5.4336    2.3937   -0.4292 C.ar      1 <1>        -0.0507
      5 C5          6.6406    0.0079    0.3668 C.ar      1 <1>        -0.0533
      6 C6          6.8237    2.2784   -0.4384 C.ar      1 <1>        -0.0387
      7 C7         -0.1870    7.0979    0.0210 C.ar      1 <1>        -0.0359
      8 C8         -1.0573    5.0492   -0.5474 C.ar      1 <1>        -0.0033
      9 C9          0.0053    4.3760    0.0339 C.ar      1 <1>         0.0389
     10 C10         4.6471    1.3161   -0.0220 C.ar      1 <1>         0.0058
     11 C11         7.4273    1.0854   -0.0404 C.ar      1 <1>        -0.0002
     12 C12         0.0705    2.9372    0.0199 C.2       1 <1>         0.1118
     13 C13         0.8542    0.9290   -0.0033 C.2       1 <1>         0.1541
     14 C14         3.1979    1.4366   -0.0122 C.2       1 <1>         0.1234
     15 C15         9.4617   -1.2938    0.3186 C.3       1 <1>        -0.0337
     16 C16         9.3691    0.0960    0.9113 C.3       1 <1>         0.0174
     17 N1         -1.1796    6.3953   -0.5694 N.ar      1 <1>        -0.3919
     18 N2         -0.9490    2.0942    0.0175 N.2       1 <1>        -0.2298
     19 N3         -0.4405    0.7948    0.0025 N.2       1 <1>        -0.2357
     20 N4          2.5322    2.5590    0.0027 N.2       1 <1>        -0.2766
     21 N5          1.2253    2.2251    0.0068 N.pl3     1 <1>        -0.2253
     22 O1          8.7836    0.9731   -0.0499 O.3       1 <1>        -0.4100
     23 S1          2.2330   -0.0728   -0.0203 S.3       1 <1>         0.0516
     24 H1          1.6850    7.1314    1.0887 H         1 <1>         0.1352
     25 H2          1.8628    4.6568    1.1022 H         1 <1>         0.1615
     26 H3          4.6479   -0.7231    0.6957 H         1 <1>         0.1482
     27 H4          4.9730    3.3276   -0.7409 H         1 <1>         0.1614
     28 H5          7.1049   -0.9241    0.6778 H         1 <1>         0.1249
     29 H6          7.4312    3.1210   -0.7570 H         1 <1>         0.1420
     30 H7         -0.3044    8.1762   -0.0076 H         1 <1>         0.2085
     31 H8         -1.8716    4.5162   -1.0301 H         1 <1>         0.2168
     32 H9          8.4699   -1.6738    0.0581 H         1 <1>         0.0588
     33 H10        10.0860   -1.2891   -0.5810 H         1 <1>         0.0490
     34 H11         9.9299   -1.9851    1.0272 H         1 <1>         0.0490
     35 H12        10.3644    0.4702    1.1695 H         1 <1>         0.0984
     36 H13         8.7445    0.0897    1.8095 H         1 <1>         0.0984
@<TRIPOS>BOND
     1    1    2 ar
     2    1    7 ar
     3    2    9 ar
     4    3    5 ar
     5    3   10 ar
     6    4    6 ar
     7    4   10 ar
     8    5   11 ar
     9    6   11 ar
    10    7   17 ar
    11    8    9 ar
    12    8   17 ar
    13    9   12 1
    14   10   14 1
    15   11   22 1
    16   12   18 2
    17   12   21 1
    18   13   19 2
    19   13   21 1
    20   13   23 1
    21   14   20 2
    22   14   23 1
    23   15   16 1
    24   16   22 1
    25   18   19 1
    26   20   21 1
    27    1   24 1
    28    2   25 1
    29    3   26 1
    30    4   27 1
    31    5   28 1
    32    6   29 1
    33    7   30 1
    34    8   31 1
    35   15   32 1
    36   15   33 1
    37   15   34 1
    38   16   35 1
    39   16   36 1
@<TRIPOS>Similarity
1.3767
@<TRIPOS>ShapeSim
0.8849
@<TRIPOS>PharmSim
0.4918
# END
