@<TRIPOS>MOLECULE
DB03490
 29 32 0 0 0
SMALL
USER_CHARGES

@<TRIPOS>ATOM
      1 C          -0.4562    3.5231   -0.8318 C.ar    1  LIG1       -0.0616
      2 C          -1.0860    2.8717    0.2135 C.ar    1  LIG1       -0.0619
      3 C           0.8208    3.1613   -1.2069 C.ar    1  LIG1       -0.0524
      4 C          -0.4371    1.8526    0.8875 C.ar    1  LIG1       -0.0580
      5 C           4.8207   -1.1179    2.1934 C.ar    1  LIG1       -0.0346
      6 C           5.5855   -2.1211    0.1505 C.ar    1  LIG1       -0.0346
      7 C           5.4157   -2.1599    2.8736 C.ar    1  LIG1        0.0274
      8 C           6.1558   -3.1216    0.9096 C.ar    1  LIG1        0.0274
      9 C           1.4817    2.1342   -0.5309 C.ar    1  LIG1        0.0056
     10 C           4.9029   -1.0845    0.7968 C.ar    1  LIG1        0.0007
     11 C           0.8402    1.4842    0.5191 C.ar    1  LIG1       -0.0340
     12 C           3.0352    0.5302    0.2195 C.ar    1  LIG1        0.0078
     13 C           2.8346    1.5522   -0.7218 C.ar    1  LIG1        0.0941
     14 C           4.2803    0.0132    0.0247 C.ar    1  LIG1        0.0606
     15 C           1.7824    0.4340    1.0545 C.3     1  LIG1        0.0023
     16 N           6.0547   -3.1150    2.2252 N.ar    1  LIG1       -0.2646
     17 N           3.9251    1.6468   -1.4597 N.ar    1  LIG1       -0.1832
     18 N           4.8479    0.6931   -1.0129 N.ar    1  LIG1       -0.2370
     19 H          -0.9661    4.3180   -1.3558 H       1  LIG1        0.0623
     20 H          -2.0858    3.1589    0.5037 H       1  LIG1        0.0623
     21 H           1.3094    3.6728   -2.0231 H       1  LIG1        0.0630
     22 H          -0.9311    1.3450    1.7029 H       1  LIG1        0.0626
     23 H           4.2994   -0.3394    2.7307 H       1  LIG1        0.0646
     24 H           5.6718   -2.1331   -0.9260 H       1  LIG1        0.0646
     25 H           5.3579   -2.1943    3.9515 H       1  LIG1        0.0840
     26 H           6.6884   -3.9235    0.4203 H       1  LIG1        0.0840
     27 H           1.3382   -0.5560    0.9513 H       1  LIG1        0.0367
     28 H           2.0127    0.6351    2.1007 H       1  LIG1        0.0367
     29 H           5.7329    0.5401   -1.3793 H       1  LIG1        0.1755
@<TRIPOS>BOND
     1     1     2   ar
     2     1     3   ar
     3     2     4   ar
     4     3     9   ar
     5     4    11   ar
     6     5     7   ar
     7     5    10   ar
     8     6     8   ar
     9     6    10   ar
    10     7    16   ar
    11     8    16   ar
    12     9    11   ar
    13     9    13    1
    14    10    14    1
    15    11    15    1
    16    12    13   ar
    17    12    14   ar
    18    12    15    1
    19    13    17   ar
    20    14    18   ar
    21    17    18   ar
    22     1    19    1
    23     2    20    1
    24     3    21    1
    25     4    22    1
    26     5    23    1
    27     6    24    1
    28     7    25    1
    29     8    26    1
    30    15    27    1
    31    15    28    1
    32    18    29    1
