@<TRIPOS>MOLECULE
DB04306
 34 36 0 0 0
SMALL
USER_CHARGES

@<TRIPOS>ATOM
      1 C           2.2789    0.6832    0.4508 C.ar    1  LIG1       -0.0589
      2 C           5.0078   -3.7383    1.5557 C.ar    1  LIG1       -0.0582
      3 C           5.8512   -2.2275    3.2151 C.ar    1  LIG1       -0.0582
      4 C           1.9958    1.6378   -0.4830 C.ar    1  LIG1       -0.0355
      5 C           3.5244    0.0716    0.4974 C.ar    1  LIG1       -0.0473
      6 C           5.2450   -2.7976    0.5731 C.ar    1  LIG1       -0.0480
      7 C           6.0964   -1.2841    2.2369 C.ar    1  LIG1       -0.0480
      8 C           4.2479    1.4049   -1.3716 C.ar    1  LIG1        0.0542
      9 C           5.3105   -3.4542    2.8749 C.ar    1  LIG1       -0.0510
     10 C           2.9741    2.0217   -1.4087 C.ar    1  LIG1        0.0787
     11 C           5.7885   -1.5641    0.9111 C.ar    1  LIG1        0.0123
     12 C           4.5154    0.4202   -0.4038 C.ar    1  LIG1        0.0251
     13 C           5.2165    1.8055   -2.3204 C.ar    1  LIG1        0.1292
     14 C           3.6779    3.2954   -3.2023 C.ar    1  LIG1        0.2133
     15 C           5.0502   -4.4835    3.9444 C.3     1  LIG1       -0.0398
     16 N           2.7376    2.9589   -2.3400 N.ar    1  LIG1       -0.2151
     17 N           4.8866    2.7404   -3.2009 N.ar    1  LIG1       -0.1998
     18 N           6.4734    1.2383   -2.3296 N.pl3   1  LIG1       -0.3425
     19 N           3.3951    4.2655   -4.1466 N.pl3   1  LIG1       -0.3273
     20 S           6.0935   -0.3609   -0.3394 S.3     1  LIG1       -0.0892
     21 H           1.5196    0.3958    1.1630 H       1  LIG1        0.0624
     22 H           4.5849   -4.6970    1.2937 H       1  LIG1        0.0626
     23 H           6.0862   -2.0089    4.2462 H       1  LIG1        0.0626
     24 H           1.0209    2.1019   -0.5030 H       1  LIG1        0.0645
     25 H           3.7218   -0.6836    1.2437 H       1  LIG1        0.0635
     26 H           5.0080   -3.0200   -0.4568 H       1  LIG1        0.0634
     27 H           6.5187   -0.3264    2.5033 H       1  LIG1        0.0634
     28 H           5.9328   -5.1113    4.0670 H       1  LIG1        0.0280
     29 H           4.8280   -3.9811    4.8858 H       1  LIG1        0.0280
     30 H           4.2015   -5.1026    3.6539 H       1  LIG1        0.0280
     31 H           6.8788    0.9713   -3.1693 H       1  LIG1        0.1442
     32 H           6.9521    1.1064   -1.4962 H       1  LIG1        0.1442
     33 H           4.0719    4.5279   -4.7900 H       1  LIG1        0.1457
     34 H           2.5199    4.6833   -4.1655 H       1  LIG1        0.1457
@<TRIPOS>BOND
     1     1     4   ar
     2     1     5   ar
     3     2     6   ar
     4     2     9   ar
     5     3     7   ar
     6     3     9   ar
     7     4    10   ar
     8     5    12   ar
     9     6    11   ar
    10     7    11   ar
    11     8    10   ar
    12     8    12   ar
    13     8    13   ar
    14     9    15    1
    15    10    16   ar
    16    11    20    1
    17    12    20    1
    18    13    17   ar
    19    13    18    1
    20    14    16   ar
    21    14    17   ar
    22    14    19    1
    23     1    21    1
    24     2    22    1
    25     3    23    1
    26     4    24    1
    27     5    25    1
    28     6    26    1
    29     7    27    1
    30    15    28    1
    31    15    29    1
    32    15    30    1
    33    18    31    1
    34    18    32    1
    35    19    33    1
    36    19    34    1
