@<TRIPOS>MOLECULE
DB06833
 54 57 0 0 0
SMALL
USER_CHARGES

@<TRIPOS>ATOM
      1 C           4.9700    1.9826   -2.7566 C.ar    1  LIG1       -0.0615
      2 C           5.9508    1.0526   -2.4174 C.ar    1  LIG1       -0.0603
      3 C           3.7889    2.0819   -2.0123 C.ar    1  LIG1       -0.0528
      4 C           5.4060   -2.6419    3.1694 C.ar    1  LIG1       -0.0574
      5 C           6.4467   -3.2465    1.0745 C.ar    1  LIG1       -0.0574
      6 C           5.7838    0.1945   -1.3266 C.ar    1  LIG1       -0.0396
      7 C           4.7029   -1.6234    2.5262 C.ar    1  LIG1       -0.0400
      8 C           5.7435   -2.2278    0.4313 C.ar    1  LIG1       -0.0400
      9 C           2.9336    0.0499    0.9031 C.ar    1  LIG1        0.0032
     10 C           3.5983    1.2273   -0.9084 C.ar    1  LIG1       -0.0011
     11 C           6.2780   -3.4535    2.4436 C.ar    1  LIG1       -0.0510
     12 C           2.5545    1.0548    0.0432 C.ar    1  LIG1       -0.0413
     13 C           4.5981    0.3051   -0.5917 C.ar    1  LIG1        0.0447
     14 C           4.8716   -1.4164    1.1572 C.ar    1  LIG1        0.0373
     15 C          -3.5883    2.2271   -2.7588 C.3     1  LIG1       -0.0533
     16 C          -2.3052    1.4084   -2.8623 C.3     1  LIG1       -0.0531
     17 C          -3.4098    3.4370   -1.8470 C.3     1  LIG1       -0.0531
     18 C          -1.7847    1.0005   -1.4860 C.3     1  LIG1       -0.0522
     19 C          -2.8911    3.0324   -0.4690 C.3     1  LIG1       -0.0522
     20 C          -1.5954    2.2161   -0.5686 C.3     1  LIG1       -0.0566
     21 C           7.0297   -4.5425    3.1312 C.3     1  LIG1       -0.0398
     22 C           1.2683    1.8246    0.1074 C.3     1  LIG1       -0.0655
     23 C          -1.1259    1.7781    0.8174 C.3     1  LIG1       -0.0904
     24 N           4.1677   -0.3958    0.5122 N.ar    1  LIG1       -0.2757
     25 N           0.1402    1.0314    0.6743 N.4     1  LIG1        0.3836
     26 H           5.1214    2.6395   -3.6092 H       1  LIG1        0.0623
     27 H           6.8610    0.9935   -3.0085 H       1  LIG1        0.0623
     28 H           3.0346    2.8130   -2.2888 H       1  LIG1        0.0630
     29 H           5.2689   -2.7966    4.2363 H       1  LIG1        0.0626
     30 H           7.1240   -3.8737    0.5011 H       1  LIG1        0.0626
     31 H           6.5523   -0.5270   -1.0694 H       1  LIG1        0.0643
     32 H           4.0270   -0.9974    3.1039 H       1  LIG1        0.0643
     33 H           5.8851   -2.0778   -0.6363 H       1  LIG1        0.0643
     34 H           2.4246   -0.3797    1.7568 H       1  LIG1        0.0798
     35 H          -3.8958    2.5597   -3.7566 H       1  LIG1        0.0266
     36 H          -4.3948    1.5931   -2.3700 H       1  LIG1        0.0266
     37 H          -2.4875    0.5136   -3.4679 H       1  LIG1        0.0267
     38 H          -1.5387    1.9958   -3.3830 H       1  LIG1        0.0267
     39 H          -2.7073    4.1414   -2.3094 H       1  LIG1        0.0267
     40 H          -4.3657    3.9625   -1.7413 H       1  LIG1        0.0267
     41 H          -2.4895    0.2938   -1.0290 H       1  LIG1        0.0269
     42 H          -0.8331    0.4682   -1.6029 H       1  LIG1        0.0269
     43 H          -2.7202    3.9340    0.1312 H       1  LIG1        0.0269
     44 H          -3.6618    2.4474    0.0490 H       1  LIG1        0.0269
     45 H          -0.8158    2.8572   -1.0014 H       1  LIG1        0.0283
     46 H           6.4527   -5.4752    3.1135 H       1  LIG1        0.0280
     47 H           7.9989   -4.7240    2.6485 H       1  LIG1        0.0280
     48 H           7.2396   -4.2829    4.1771 H       1  LIG1        0.0280
     49 H           1.3717    2.7168    0.7343 H       1  LIG1        0.0104
     50 H           0.9532    2.1519   -0.8893 H       1  LIG1        0.0104
     51 H          -1.8512    1.1137    1.2830 H       1  LIG1        0.0057
     52 H          -0.9320    2.6394    1.4536 H       1  LIG1        0.0057
     53 H          -0.0116    0.2018    0.0785 H       1  LIG1       -0.0857
     54 H           0.4288    0.6578    1.5928 H       1  LIG1       -0.0857
@<TRIPOS>BOND
     1     1     2   ar
     2     1     3   ar
     3     2     6   ar
     4     3    10   ar
     5     4     7   ar
     6     4    11   ar
     7     5     8   ar
     8     5    11   ar
     9     6    13   ar
    10     7    14   ar
    11     8    14   ar
    12     9    12   ar
    13     9    24   ar
    14    10    12   ar
    15    10    13   ar
    16    11    21    1
    17    12    22    1
    18    13    24   ar
    19    14    24    1
    20    15    16    1
    21    15    17    1
    22    16    18    1
    23    17    19    1
    24    18    20    1
    25    19    20    1
    26    20    23    1
    27    22    25    1
    28    23    25    1
    29     1    26    1
    30     2    27    1
    31     3    28    1
    32     4    29    1
    33     5    30    1
    34     6    31    1
    35     7    32    1
    36     8    33    1
    37     9    34    1
    38    15    35    1
    39    15    36    1
    40    16    37    1
    41    16    38    1
    42    17    39    1
    43    17    40    1
    44    18    41    1
    45    18    42    1
    46    19    43    1
    47    19    44    1
    48    20    45    1
    49    21    46    1
    50    21    47    1
    51    21    48    1
    52    22    49    1
    53    22    50    1
    54    23    51    1
    55    23    52    1
    56    25    53    1
    57    25    54    1
