@<TRIPOS>MOLECULE
DB07161
 27 29 0 0 0
SMALL
USER_CHARGES

@<TRIPOS>ATOM
      1 C           5.9264   -3.3288    2.5221 C.ar    1  LIG1       -0.0622
      2 C           6.1031   -2.0049    2.9243 C.ar    1  LIG1       -0.0616
      3 C           5.1936   -3.6159    1.3705 C.ar    1  LIG1       -0.0616
      4 C           5.5469   -0.9682    2.1750 C.ar    1  LIG1       -0.0544
      5 C           4.6374   -2.5792    0.6212 C.ar    1  LIG1       -0.0544
      6 C           2.9470    0.2681    0.5376 C.ar    1  LIG1       -0.0524
      7 C           2.3576    1.3057   -0.1922 C.ar    1  LIG1       -0.0379
      8 C           4.9829    0.3991   -0.7893 C.ar    1  LIG1       -0.0416
      9 C           4.4046    1.4425   -1.5313 C.ar    1  LIG1        0.0394
     10 C           4.8140   -1.2553    1.0234 C.ar    1  LIG1       -0.0184
     11 C           4.2371   -0.1789    0.2457 C.ar    1  LIG1       -0.0175
     12 C           3.1181    1.8683   -1.2196 C.ar    1  LIG1        0.0583
     13 C           4.7934    2.2648   -2.6106 C.ar    1  LIG1        0.1423
     14 N           3.8481    3.1392   -2.9627 N.ar    1  LIG1       -0.1681
     15 N           2.8479    2.8764   -2.1052 N.ar    1  LIG1       -0.2360
     16 N           6.0125    2.1437   -3.1988 N.pl3   1  LIG1       -0.3414
     17 H           6.3610   -4.1357    3.1047 H       1  LIG1        0.0622
     18 H           6.6751   -1.7811    3.8200 H       1  LIG1        0.0623
     19 H           5.0568   -4.6463    1.0560 H       1  LIG1        0.0623
     20 H           5.6938    0.0587    2.5015 H       1  LIG1        0.0629
     21 H           4.0692   -2.8183   -0.2746 H       1  LIG1        0.0629
     22 H           2.3757   -0.1879    1.3443 H       1  LIG1        0.0630
     23 H           1.3559    1.6543    0.0329 H       1  LIG1        0.0643
     24 H           5.9872    0.0520   -1.0172 H       1  LIG1        0.0637
     25 H           2.0001    3.4250   -2.1775 H       1  LIG1        0.1755
     26 H           6.7155    1.4822   -2.8514 H       1  LIG1        0.1442
     27 H           6.3124    2.7727   -3.9518 H       1  LIG1        0.1442
@<TRIPOS>BOND
     1     1     2   ar
     2     1     3   ar
     3     2     4   ar
     4     3     5   ar
     5     4    10   ar
     6     5    10   ar
     7     6     7   ar
     8     6    11   ar
     9     7    12   ar
    10     8     9   ar
    11     8    11   ar
    12     9    12   ar
    13     9    13   ar
    14    10    11    1
    15    12    15   ar
    16    13    14   ar
    17    13    16    1
    18    14    15   ar
    19     1    17    1
    20     2    18    1
    21     3    19    1
    22     4    20    1
    23     5    21    1
    24     6    22    1
    25     7    23    1
    26     8    24    1
    27    15    25    1
    28    16    26    1
    29    16    27    1
