@<TRIPOS>MOLECULE
DB07229
 47 50 0 0 0
SMALL
USER_CHARGES

@<TRIPOS>ATOM
      1 C          -1.3162    2.7670    0.4536 C.ar    1  LIG1        0.0000
      2 C          -1.1371    1.4007    0.3343 C.ar    1  LIG1        0.0000
      3 C          -0.2330    3.6225    0.3623 C.ar    1  LIG1        0.0000
      4 C           0.1250    0.8833    0.1238 C.ar    1  LIG1        0.0000
      5 C           1.0344    3.1157    0.1581 C.ar    1  LIG1        0.0000
      6 C           6.0357   -4.4965    4.4594 C.ar    1  LIG1        0.0000
      7 C           5.3513   -3.3280    4.2945 C.ar    1  LIG1        0.0000
      8 C           6.5603   -4.5641    2.0991 C.ar    1  LIG1        0.0000
      9 C           5.5775   -2.5220    0.7691 C.ar    1  LIG1        0.0000
     10 C           3.3863    1.7164   -1.2014 C.ar    1  LIG1        0.0000
     11 C           5.1317    0.1667   -0.6300 C.ar    1  LIG1        0.0000
     12 C           5.8619   -3.3697    1.9268 C.ar    1  LIG1        0.0000
     13 C           1.2200    1.7404    0.0314 C.ar    1  LIG1        0.0000
     14 C           2.5790    1.1902   -0.1948 C.ar    1  LIG1        0.0000
     15 C           4.3335   -0.3685    0.3812 C.ar    1  LIG1        0.0000
     16 C           6.6468   -5.1276    3.3679 C.ar    1  LIG1        0.0000
     17 C           5.2512   -2.7450    3.0336 C.ar    1  LIG1        0.0000
     18 C           4.6560    1.2044   -1.4148 C.ar    1  LIG1        0.0000
     19 C           3.0490    0.1411    0.5967 C.ar    1  LIG1        0.0000
     20 C           4.8417   -1.4754    1.2189 C.ar    1  LIG1        0.0000
     21 C           7.3890   -6.3903    3.5659 C.2     1  LIG1        0.0000
     22 C           4.6827    2.7625   -3.0230 C.3     1  LIG1        0.0000
     23 N           4.6415   -1.6009    2.5745 N.ar    1  LIG1        0.0000
     24 N           7.4585   -7.2837    2.5802 N.pl3   1  LIG1        0.0000
     25 N           7.9886   -6.6349    4.7301 N.2     1  LIG1        0.0000
     26 O           2.2660   -0.3759    1.5792 O.3     1  LIG1        0.0000
     27 O           5.4386    1.7230   -2.3986 O.3     1  LIG1        0.0000
     28 H          -2.3055    3.1676    0.6183 H       1  LIG1        0.0000
     29 H          -1.9865    0.7375    0.4057 H       1  LIG1        0.0000
     30 H          -0.3787    4.6885    0.4554 H       1  LIG1        0.0000
     31 H           0.2636   -0.1837    0.0305 H       1  LIG1        0.0000
     32 H           1.8796    3.7845    0.0873 H       1  LIG1        0.0000
     33 H           6.1071   -4.9399    5.4416 H       1  LIG1        0.0000
     34 H           4.8848   -2.8533    5.1450 H       1  LIG1        0.0000
     35 H           7.0305   -5.0471    1.2552 H       1  LIG1        0.0000
     36 H           5.8934   -2.6960   -0.2489 H       1  LIG1        0.0000
     37 H           3.0215    2.5257   -1.8166 H       1  LIG1        0.0000
     38 H           6.1222   -0.2283   -0.8010 H       1  LIG1        0.0000
     39 H           3.7651    2.3455   -3.4380 H       1  LIG1        0.0000
     40 H           4.4339    3.5246   -2.2844 H       1  LIG1        0.0000
     41 H           5.2724    3.2104   -3.8227 H       1  LIG1        0.0000
     42 H           4.1443   -0.9755    3.1245 H       1  LIG1        0.0000
     43 H           7.9457   -8.1124    2.7101 H       1  LIG1        0.0000
     44 H           7.0219   -7.1056    1.7325 H       1  LIG1        0.0000
     45 H           7.9380   -5.9844    5.4478 H       1  LIG1        0.0000
     46 H           8.4758   -7.4636    4.8601 H       1  LIG1        0.0000
     47 H           1.7542   -1.0929    1.1804 H       1  LIG1        0.0000
@<TRIPOS>BOND
     1     1     2   ar
     2     1     3   ar
     3     2     4   ar
     4     3     5   ar
     5     4    13   ar
     6     5    13   ar
     7     6     7   ar
     8     6    16   ar
     9     7    17   ar
    10     8    12   ar
    11     8    16   ar
    12     9    12   ar
    13     9    20   ar
    14    10    14   ar
    15    10    18   ar
    16    11    15   ar
    17    11    18   ar
    18    12    17   ar
    19    13    14    1
    20    14    19   ar
    21    15    19   ar
    22    15    20    1
    23    16    21    1
    24    17    23   ar
    25    18    27    1
    26    19    26    1
    27    20    23   ar
    28    21    24    1
    29    21    25    2
    30    22    27    1
    31     1    28    1
    32     2    29    1
    33     3    30    1
    34     4    31    1
    35     5    32    1
    36     6    33    1
    37     7    34    1
    38     8    35    1
    39     9    36    1
    40    10    37    1
    41    11    38    1
    42    22    39    1
    43    22    40    1
    44    22    41    1
    45    23    42    1
    46    24    43    1
    47    24    44    1
    48    25    45    1
    49    25    46    1
    50    26    47    1
