@<TRIPOS>MOLECULE
*****
 9 8 0 0 0
SMALL
GASTEIGER

@<TRIPOS>ATOM
      1 N          -0.6093    1.1269    0.0000 N.3     1  LEU1       -0.1208
      2 CA         -0.6416    2.6266    0.0000 C.3     1  LEU1        0.1943
      3 C           0.6410    3.4043    0.0000 C.2     1  LEU1        0.3819
      4 O           1.9559    2.6826    0.0000 O.co2   1  LEU1       -0.2441
      5 OXT         0.6087    4.9040    0.0000 O.co2   1  LEU1       -0.2441
      6 CB         -1.9565    3.3483    0.0000 C.3     1  LEU1        0.0306
      7 CG         -3.2391    2.5706    0.0000 C.3     1  LEU1        0.0020
      8 CD1        -4.5540    3.2923    0.0000 C.3     1  LEU1        0.0001
      9 CD2        -3.2067    1.0709    0.0000 C.3     1  LEU1        0.0001
@<TRIPOS>BOND
     1     1     2    1
     2     2     3    1
     3     2     6    1
     4     3     4   ar
     5     3     5   ar
     6     6     7    1
     7     7     8    1
     8     7     9    1
