@<TRIPOS>MOLECULE
*****
 37 39 0 0 0
SMALL
GASTEIGER

@<TRIPOS>ATOM
      1 C          -6.6333    7.9000    0.0000 C.ar    1  LIG1        0.0000
      2 C          -5.3343    7.1500    0.0000 C.ar    1  LIG1        0.0000
      3 C          -5.3343    5.6500    0.0000 C.ar    1  LIG1        0.0000
      4 C          -6.6333    4.9000    0.0000 C.ar    1  LIG1        0.0000
      5 C          -7.9324    5.6500    0.0000 C.ar    1  LIG1        0.0000
      6 C          -7.9324    7.1500    0.0000 C.ar    1  LIG1        0.0000
      7 N           2.3008    0.6244    0.0000 N.3     2  LIG2       -0.1180
      8 CA          3.0489    1.9245    0.0000 C.3     2  LIG2        0.2270
      9 C           4.5490    1.9266    0.0000 C.2     2  LIG2        0.3845
     10 C           2.2971    3.2224    0.0000 C.3     2  LIG2        0.2125
     11 O           5.3009    0.6286    0.0000 O.co2   2  LIG2       -0.2440
     12 O           5.2972    3.2266    0.0000 O.co2   2  LIG2       -0.2440
     13 O           0.7971    3.2203    0.0000 O.3     2  LIG2       -0.2182
     14 C           4.9184    9.7713    0.0000 C.3     3  LIG3        0.0000
     15 C           4.9184    8.2713    0.0000 C.3     3  LIG3        0.0000
     16 C           3.8578    7.2107    0.0000 C.3     3  LIG3        0.0000
     17 C           1.2971    9.7713    0.0000 C.3     3  LIG3        0.0000
     18 C           2.3578   10.8320    0.0000 C.3     3  LIG3        0.0000
     19 C           3.8578   10.8320    0.0000 C.3     3  LIG3        0.0000
     20 C           2.3578    7.2107    0.0000 C.3     3  LIG3        0.0003
     21 C           2.3578    5.7107    0.0000 C.3     3  LIG3        0.0044
     22 C           1.2971    4.6500    0.0000 C.3     3  LIG3        0.0232
     23 C          -1.2635    5.7107    0.0000 C.3     3  LIG3        0.0232
     24 C          -1.2635    7.2107    0.0000 C.3     3  LIG3        0.0044
     25 C          -0.2029    8.2713    0.0000 C.3     3  LIG3        0.0003
     26 C           1.2971    8.2713    0.0000 C.3     3  LIG3        0.0000
     27 C          -1.5019    5.4000    0.0000 C.2     3  LIG3        0.0206
     28 C          -0.2029    4.6500    0.0000 C.2     3  LIG3       -0.0315
     29 C          -0.2029    3.1500    0.0000 C.2     3  LIG3       -0.0068
     30 C          -1.5019    2.4000    0.0000 C.2     3  LIG3        0.0065
     31 C          -2.8010    3.1500    0.0000 C.2     3  LIG3        0.0286
     32 C          -4.1000    6.9000    0.0000 C.2     3  LIG3        0.0071
     33 C          -2.8010    6.1500    0.0000 C.2     3  LIG3        0.0286
     34 C          -2.8010    4.6500    0.0000 C.1     3  LIG3       -0.1459
     35 C          -4.1000    3.9000    0.0000 C.2     3  LIG3        0.0286
     36 C          -5.3990    4.6500    0.0000 C.2     3  LIG3        0.0071
     37 C          -5.3990    6.1500    0.0000 C.2     3  LIG3        0.0012
@<TRIPOS>BOND
     1     1     2   ar
     2     2     3   ar
     3     3     4   ar
     4     4     5   ar
     5     5     6   ar
     6     6     1   ar
     7     7     8    1
     8     8     9    1
     9     8    10    1
    10     9    11   ar
    11     9    12   ar
    12    10    13    1
    13    14    15    1
    14    15    16    1
    15    16    20    1
    16    26    17    1
    17    17    18    1
    18    18    19    1
    19    19    14    1
    20    20    21    1
    21    21    22    1
    22    22    28    1
    23    28    23    1
    24    23    24    1
    25    24    25    1
    26    25    26    1
    27    26    20    1
    28    27    28    2
    29    28    29    1
    30    29    30    2
    31    30    31    1
    32    31    34    2
    33    34    27    1
    34    32    33    2
    35    33    34    1
    36    34    35    2
    37    35    36    1
    38    36    37    2
    39    37    32    1
