@<TRIPOS>MOLECULE
*****
 20 20 0 0 0
SMALL
GASTEIGER

@<TRIPOS>ATOM
      1 C           4.5833    6.1167    0.0000 C.ar    1  LIG1        0.0000
      2 C           5.8824    5.3667    0.0000 C.ar    1  LIG1        0.0000
      3 C           5.8824    3.8667    0.0000 C.ar    1  LIG1        0.0000
      4 C           4.5833    3.1167    0.0000 C.ar    1  LIG1        0.0000
      5 C           3.2843    3.8667    0.0000 C.ar    1  LIG1        0.0000
      6 C           3.2843    5.3667    0.0000 C.ar    1  LIG1        0.0000
      7 C           3.7500   -0.1074    0.0000 C.3     2  LIG2        0.0000
      8 C           4.9635   -0.9890    0.0000 C.3     2  LIG2        0.0000
      9 C           4.5000   -2.4156    0.0000 C.3     2  LIG2        0.0000
     10 C           3.0000   -2.4156    0.0000 C.3     2  LIG2        0.0000
     11 C           2.5365   -0.9890    0.0000 C.3     2  LIG2        0.0000
     12 C          -4.9167    4.7500    0.0000 C.ar    3  LIG3        0.0000
     13 C          -3.6176    4.0000    0.0000 C.ar    3  LIG3        0.0000
     14 C          -3.6176    2.5000    0.0000 C.ar    3  LIG3        0.0000
     15 C          -4.9167    1.7500    0.0000 C.ar    3  LIG3        0.0000
     16 C          -6.2157    2.5000    0.0000 C.ar    3  LIG3        0.0000
     17 C          -6.2157    4.0000    0.0000 C.ar    3  LIG3        0.0000
     18 C           0.6500    7.8827    0.0000 C.3     1  LIG1        0.0000
     19 C           1.4000    6.5837    0.0000 C.3     1  LIG1        0.0000
     20 C          -0.1000    6.5837    0.0000 C.3     1  LIG1        0.0000
@<TRIPOS>BOND
     1     1     2   ar
     2     2     3   ar
     3     3     4   ar
     4     4     5   ar
     5     5     6   ar
     6     6     1   ar
     7     7     8    1
     8     8     9    1
     9     9    10    1
    10    10    11    1
    11    11     7    1
    12    12    13   ar
    13    13    14   ar
    14    14    15   ar
    15    15    16   ar
    16    16    17   ar
    17    17    12   ar
    18    18    19    1
    19    19    20    1
    20    20    18    1
