@<TRIPOS>MOLECULE
ZINC04597381
   43    46     0     0     0
SMALL
USER_CHARGES
N-cyclopentyl-8-(4-methylsulfanylphenyl)-1,4,7-triazabicyclo[4.3.0]nona-2,4,6,8-tetraen-9-amine
@<TRIPOS>ATOM
      1 C1         10.9912   -0.3574   -0.2983 C.3       1 <0>        -0.1451
      2 S1         10.3271    0.9036   -1.4206 S.3       1 <0>        -0.1162
      3 C2          8.5885    0.8514   -1.1394 C.ar      1 <0>        -0.0776
      4 C3          7.7453    1.7029   -1.8448 C.ar      1 <0>        -0.0979
      5 C4          6.3847    1.6635   -1.6269 C.ar      1 <0>        -0.0677
      6 C5          5.8540    0.7689   -0.6976 C.ar      1 <0>        -0.0054
      7 C6          6.7023   -0.0800    0.0133 C.ar      1 <0>        -0.0758
      8 C7          8.0617   -0.0410   -0.2122 C.ar      1 <0>        -0.1314
      9 C8          4.3915    0.7246   -0.4615 C.2       1 <0>         0.0915
     10 C9          3.6488   -0.4066   -0.1716 C.2       1 <0>         0.1629
     11 N1          2.3575   -0.0031   -0.0315 N.pl3     1 <0>        -0.3657
     12 C10         1.1879   -0.6613    0.2530 C.2       1 <0>        -0.0323
     13 C11         0.0334    0.0306    0.3278 C.2       1 <0>         0.0468
     14 N2          0.0018    1.3524    0.1295 N.2       1 <0>        -0.4695
     15 C12         1.0904    2.0305   -0.1454 C.2       1 <0>         0.2107
     16 C13         2.3271    1.3614   -0.2362 C.2       1 <0>         0.1513
     17 N3          3.5558    1.7744   -0.4918 N.2       1 <0>        -0.4303
     18 N4          4.1309   -1.7079   -0.0473 N.pl3     1 <0>        -0.5702
     19 C14         3.0267   -2.6688    0.0771 C.3       1 <0>         0.0533
     20 C15         2.6304   -2.8292    1.5593 C.3       1 <0>        -0.1682
     21 C16         2.2851   -4.3335    1.6987 C.3       1 <0>        -0.1218
     22 C17         3.3411   -5.0128    0.7917 C.3       1 <0>        -0.1267
     23 C18         3.4781   -4.0565   -0.4110 C.3       1 <0>        -0.1143
     24 H1         10.5637   -1.3282   -0.5489 H         1 <0>         0.0846
     25 H2         12.0755   -0.4004   -0.4011 H         1 <0>         0.1100
     26 H3         10.7335   -0.1012    0.7293 H         1 <0>         0.0844
     27 H4          8.1567    2.3954   -2.5643 H         1 <0>         0.1323
     28 H5          5.7302    2.3250   -2.1750 H         1 <0>         0.1347
     29 H6          6.2940   -0.7704    0.7366 H         1 <0>         0.1192
     30 H7          8.7185   -0.7012    0.3348 H         1 <0>         0.1263
     31 H8          1.1921   -1.7288    0.4165 H         1 <0>         0.1905
     32 H9         -0.8841   -0.4932    0.5521 H         1 <0>         0.1786
     33 H10         1.0389    3.0979   -0.3019 H         1 <0>         0.1913
     34 H11         4.7669   -1.7850    0.7322 H         1 <0>         0.3617
     35 H12         2.1694   -2.3292   -0.5040 H         1 <0>         0.0941
     36 H13         3.4664   -2.5682    2.2082 H         1 <0>         0.0751
     37 H14         1.7605   -2.2144    1.7903 H         1 <0>         0.0755
     38 H15         1.2773   -4.5332    1.3347 H         1 <0>         0.0718
     39 H16         2.3935   -4.6636    2.7319 H         1 <0>         0.0728
     40 H17         2.9894   -5.9908    0.4634 H         1 <0>         0.0720
     41 H18         4.2921   -5.1047    1.3163 H         1 <0>         0.0688
     42 H19         2.8392   -4.3908   -1.2284 H         1 <0>         0.0730
     43 H20         4.5161   -4.0168   -0.7410 H         1 <0>         0.0829
@<TRIPOS>BOND
     1    1    2 1
     2    1   24 1
     3    1   25 1
     4    1   26 1
     5    2    3 1
     6    3    8 ar
     7    3    4 ar
     8    4    5 ar
     9    4   27 1
    10    5    6 ar
    11    5   28 1
    12    6    7 ar
    13    6    9 1
    14    7    8 ar
    15    7   29 1
    16    8   30 1
    17    9   17 1
    18    9   10 2
    19   10   11 1
    20   10   18 1
    21   11   16 1
    22   11   12 1
    23   12   13 2
    24   12   31 1
    25   13   14 1
    26   13   32 1
    27   14   15 2
    28   15   16 1
    29   15   33 1
    30   16   17 2
    31   18   19 1
    32   18   34 1
    33   19   23 1
    34   19   20 1
    35   19   35 1
    36   20   21 1
    37   20   36 1
    38   20   37 1
    39   21   22 1
    40   21   38 1
    41   21   39 1
    42   22   23 1
    43   22   40 1
    44   22   41 1
    45   23   42 1
    46   23   43 1