@<TRIPOS>MOLECULE
AS-980/15246972
 40 43 0 0 0
SMALL
USER_CHARGES

@<TRIPOS>ATOM
      1 C          -1.1895    2.9961    0.1447 C.ar    1  LIG1       -0.1026
      2 C           6.0822   -3.3468    2.4510 C.ar    1  LIG1       -0.1012
      3 C          -1.0247    1.8762   -0.6703 C.ar    1  LIG1       -0.0975
      4 C          -0.1129    3.4846    0.8851 C.ar    1  LIG1       -0.0965
      5 C           6.3628   -3.1116    1.1051 C.ar    1  LIG1       -0.0923
      6 C           5.1467   -2.5551    3.1172 C.ar    1  LIG1       -0.0911
      7 C           0.2169    1.2446   -0.7448 C.ar    1  LIG1       -0.0750
      8 C           1.1285    2.8529    0.8106 C.ar    1  LIG1       -0.0739
      9 C           5.7079   -2.0847    0.4253 C.ar    1  LIG1       -0.0531
     10 C           4.4918   -1.5281    2.4373 C.ar    1  LIG1       -0.0516
     11 C           5.1216    2.1387   -2.6672 C.ar    1  LIG1       -0.0579
     12 C           3.6237    1.3579   -0.9816 C.ar    1  LIG1        0.0231
     13 C           1.2934    1.7329   -0.0044 C.ar    1  LIG1       -0.0265
     14 C           3.8789    2.2371   -2.0413 C.ar    1  LIG1       -0.0798
     15 C           4.7724   -1.2929    1.0914 C.ar    1  LIG1        0.0022
     16 C           2.5761    1.0805   -0.0810 C.ar    1  LIG1        0.0402
     17 C           6.0298    1.1877   -2.2141 C.ar    1  LIG1       -0.0415
     18 C           4.6176    0.4574   -0.6311 C.ar    1  LIG1        0.0521
     19 C           2.9013    3.2570   -2.5244 C.3     1  LIG1       -0.0261
     20 C           7.3578    1.0938   -2.8955 C.3     1  LIG1        0.0007
     21 N           2.8719    0.0920    0.7695 N.ar    1  LIG1       -0.2832
     22 N           5.8298    0.3169   -1.1953 N.ar    1  LIG1       -0.3615
     23 N           4.1181   -0.2666    0.4110 N.ar    1  LIG1       -0.2499
     24 H          -2.1558    3.4886    0.2020 H       1  LIG1        0.1215
     25 H           6.5905   -4.1473    2.9804 H       1  LIG1        0.1197
     26 H          -1.8623    1.4965   -1.2478 H       1  LIG1        0.1212
     27 H          -0.2414    4.3573    1.5185 H       1  LIG1        0.1211
     28 H           7.0902   -3.7287    0.5859 H       1  LIG1        0.1262
     29 H           4.9277   -2.7397    4.1649 H       1  LIG1        0.1275
     30 H           0.3295    0.3725   -1.3847 H       1  LIG1        0.1315
     31 H           1.9578    3.2461    1.3940 H       1  LIG1        0.1311
     32 H           5.9353   -1.9125   -0.6239 H       1  LIG1        0.1346
     33 H           3.7643   -0.9190    2.9684 H       1  LIG1        0.1373
     34 H           5.3756    2.7958   -3.4943 H       1  LIG1        0.1278
     35 H           2.2648    2.8318   -3.3093 H       1  LIG1        0.0704
     36 H           2.2597    3.6098   -1.7074 H       1  LIG1        0.0644
     37 H           3.4147    4.1379   -2.9299 H       1  LIG1        0.0677
     38 H           8.0809    1.7554   -2.4064 H       1  LIG1        0.0819
     39 H           7.7442    0.0685   -2.8668 H       1  LIG1        0.0799
     40 H           7.2799    1.3780   -3.9516 H       1  LIG1        0.0790
@<TRIPOS>BOND
     1     1     3   ar
     2     1     4   ar
     3     2     5   ar
     4     2     6   ar
     5     3     7   ar
     6     4     8   ar
     7     5     9   ar
     8     6    10   ar
     9     7    13   ar
    10     8    13   ar
    11     9    15   ar
    12    10    15   ar
    13    11    14   ar
    14    11    17   ar
    15    12    14   ar
    16    12    16   ar
    17    12    18   ar
    18    13    16    1
    19    14    19    1
    20    15    23    1
    21    16    21   ar
    22    17    20    1
    23    17    22   ar
    24    18    22   ar
    25    18    23   ar
    26    21    23   ar
    27     1    24    1
    28     2    25    1
    29     3    26    1
    30     4    27    1
    31     5    28    1
    32     6    29    1
    33     7    30    1
    34     8    31    1
    35     9    32    1
    36    10    33    1
    37    11    34    1
    38    19    35    1
    39    19    36    1
    40    19    37    1
    41    20    38    1
    42    20    39    1
    43    20    40    1
