@<TRIPOS>MOLECULE
AG-690/11481219
 32 34 0 0 0
SMALL
USER_CHARGES

@<TRIPOS>ATOM
      1 C           3.0406    2.8403   -2.1814 C.1     1  LIG1        0.0815
      2 C           5.9450   -3.4144    2.6029 C.ar    1  LIG1       -0.1018
      3 C           5.5694   -2.2140    3.2058 C.ar    1  LIG1       -0.0952
      4 C           5.8059   -3.5761    1.2244 C.ar    1  LIG1       -0.0985
      5 C           5.0548   -1.1752    2.4302 C.ar    1  LIG1       -0.0739
      6 C           5.2912   -2.5372    0.4488 C.ar    1  LIG1       -0.0796
      7 C           1.1529    2.8626    0.7863 C.ar    1  LIG1       -0.0736
      8 C           0.2404    1.2517   -0.7661 C.ar    1  LIG1       -0.0751
      9 C          -0.1262    3.3719    1.0097 C.ar    1  LIG1       -0.0730
     10 C          -1.0387    1.7611   -0.5426 C.ar    1  LIG1       -0.0733
     11 C           3.1113    0.2383    0.4785 C.ar    1  LIG1       -0.0130
     12 C           3.4888    1.7723   -1.3350 C.ar    1  LIG1        0.1239
     13 C           1.3363    1.8025   -0.1016 C.ar    1  LIG1       -0.0519
     14 C           4.9157   -1.3366    1.0517 C.ar    1  LIG1       -0.0313
     15 C           2.6631    1.2744   -0.3332 C.ar    1  LIG1       -0.0017
     16 C          -1.2220    2.8211    0.3454 C.ar    1  LIG1       -0.0352
     17 C           4.3832   -0.2613    0.2494 C.ar    1  LIG1        0.0054
     18 C           4.7439    1.2043   -1.4828 C.ar    1  LIG1        0.0944
     19 N           2.6782    3.7043   -2.8660 N.1     1  LIG1       -0.3503
     20 N           5.2140    0.1967   -0.7138 N.ar    1  LIG1       -0.3425
     21 BR         -2.9557    3.5100    0.6483 Br      1  LIG1       -0.1033
     22 BR          5.9553    1.8161   -2.8291 Br      1  LIG1        0.0122
     23 H           6.3473   -4.2225    3.2067 H       1  LIG1        0.1232
     24 H           5.6792   -2.0874    4.2788 H       1  LIG1        0.1210
     25 H           6.0994   -4.5099    0.7541 H       1  LIG1        0.1208
     26 H           4.7668   -0.2452    2.9150 H       1  LIG1        0.1419
     27 H           5.1893   -2.6774   -0.6247 H       1  LIG1        0.1295
     28 H           1.9972    3.3025    1.3118 H       1  LIG1        0.1417
     29 H           0.3670    0.4247   -1.4605 H       1  LIG1        0.1350
     30 H          -0.2521    4.1976    1.7053 H       1  LIG1        0.1413
     31 H          -1.8818    1.3207   -1.0683 H       1  LIG1        0.1407
     32 H           2.4852   -0.1682    1.2681 H       1  LIG1        0.1609
@<TRIPOS>BOND
     1     1    12    1
     2     1    19    3
     3     2     3   ar
     4     2     4   ar
     5     3     5   ar
     6     4     6   ar
     7     5    14   ar
     8     6    14   ar
     9     7     9   ar
    10     7    13   ar
    11     8    10   ar
    12     8    13   ar
    13     9    16   ar
    14    10    16   ar
    15    11    15   ar
    16    11    17   ar
    17    12    15   ar
    18    12    18   ar
    19    13    15    1
    20    14    17    1
    21    16    21    1
    22    17    20   ar
    23    18    20   ar
    24    18    22    1
    25     2    23    1
    26     3    24    1
    27     4    25    1
    28     5    26    1
    29     6    27    1
    30     7    28    1
    31     8    29    1
    32     9    30    1
    33    10    31    1
    34    11    32    1
