@<TRIPOS>MOLECULE
AO-435/41051597
 35 38 0 0 0
SMALL
USER_CHARGES

@<TRIPOS>ATOM
      1 C          -1.5044    3.2680    0.0467 C.ar    1  LIG1       -0.1044
      2 C           6.2969   -3.3948    2.3748 C.ar    1  LIG1       -0.1044
      3 C           4.6032    2.3323   -2.5732 C.ar    1  LIG1       -0.1012
      4 C           5.6670    1.4238   -2.2563 C.ar    1  LIG1       -0.1012
      5 C          -1.3469    2.1306   -0.7453 C.ar    1  LIG1       -0.1004
      6 C          -0.4344    3.7435    0.8048 C.ar    1  LIG1       -0.0992
      7 C           6.5001   -3.1133    1.0239 C.ar    1  LIG1       -0.0992
      8 C           5.3609   -2.6637    3.1065 C.ar    1  LIG1       -0.1004
      9 C           3.3682    2.3744   -1.8897 C.ar    1  LIG1       -0.0928
     10 C           5.6059    0.4631   -1.2230 C.ar    1  LIG1       -0.0928
     11 C          -0.1196    1.4688   -0.7791 C.ar    1  LIG1       -0.0864
     12 C           0.7929    3.0816    0.7709 C.ar    1  LIG1       -0.0846
     13 C           5.7675   -2.1006    0.4045 C.ar    1  LIG1       -0.0846
     14 C           4.6283   -1.6511    2.4871 C.ar    1  LIG1       -0.0864
     15 C           3.3165    1.4231   -0.8715 C.ar    1  LIG1       -0.0719
     16 C           4.3838    0.5115   -0.5536 C.ar    1  LIG1       -0.0719
     17 C           0.9504    1.9443   -0.0211 C.ar    1  LIG1       -0.0659
     18 C           4.8316   -1.3696    1.1362 C.ar    1  LIG1       -0.0659
     19 C           2.2236    1.2581   -0.0569 C.ar    1  LIG1       -0.0049
     20 C           4.0711   -0.3198    0.4934 C.ar    1  LIG1       -0.0049
     21 S           2.4885    0.0021    1.0910 S.2     1  LIG1       -0.0805
     22 H          -2.4598    3.7837    0.0726 H       1  LIG1        0.1186
     23 H           6.8669   -4.1837    2.8568 H       1  LIG1        0.1186
     24 H           4.7614    3.0334   -3.3927 H       1  LIG1        0.1170
     25 H           6.5780    1.4822   -2.8516 H       1  LIG1        0.1170
     26 H          -2.1803    1.7605   -1.3353 H       1  LIG1        0.1199
     27 H          -0.5566    4.6298    1.4207 H       1  LIG1        0.1204
     28 H           7.2291   -3.6825    0.4544 H       1  LIG1        0.1203
     29 H           5.2019   -2.8837    4.1581 H       1  LIG1        0.1199
     30 H           2.5844    3.0713   -2.1540 H       1  LIG1        0.1241
     31 H           6.4268   -0.2072   -1.0067 H       1  LIG1        0.1241
     32 H          -0.0121    0.5850   -1.4036 H       1  LIG1        0.1242
     33 H           1.6170    3.4642    1.3685 H       1  LIG1        0.1278
     34 H           5.9357   -1.8951   -0.6499 H       1  LIG1        0.1279
     35 H           3.9033   -1.0895    3.0714 H       1  LIG1        0.1242
@<TRIPOS>BOND
     1     1     5   ar
     2     1     6   ar
     3     2     7   ar
     4     2     8   ar
     5     3     4   ar
     6     3     9   ar
     7     4    10   ar
     8     5    11   ar
     9     6    12   ar
    10     7    13   ar
    11     8    14   ar
    12     9    15   ar
    13    10    16   ar
    14    11    17   ar
    15    12    17   ar
    16    13    18   ar
    17    14    18   ar
    18    15    16   ar
    19    15    19   ar
    20    16    20   ar
    21    17    19    1
    22    18    20    1
    23    19    21   ar
    24    20    21   ar
    25     1    22    1
    26     2    23    1
    27     3    24    1
    28     4    25    1
    29     5    26    1
    30     6    27    1
    31     7    28    1
    32     8    29    1
    33     9    30    1
    34    10    31    1
    35    11    32    1
    36    12    33    1
    37    13    34    1
    38    14    35    1
