@<TRIPOS>MOLECULE
AK-087/11538930
 36 38 0 0 0
SMALL
USER_CHARGES

@<TRIPOS>ATOM
      1 C           6.4897    1.5222   -1.7496 C.1     1  LIG1        0.0327
      2 C           6.0926   -3.3445    2.4433 C.ar    1  LIG1       -0.0978
      3 C           5.8526   -3.4537    1.0737 C.ar    1  LIG1       -0.0879
      4 C           5.6723   -2.2095    3.1367 C.ar    1  LIG1       -0.0919
      5 C           1.1784    3.0667   -0.3763 C.ar    1  LIG1       -0.0753
      6 C           0.1697    1.0293    0.4414 C.ar    1  LIG1       -0.0758
      7 C          -0.0597    3.7059   -0.3112 C.ar    1  LIG1       -0.0975
      8 C          -1.0683    1.6685    0.5067 C.ar    1  LIG1       -0.0976
      9 C           5.1924   -2.4278    0.3973 C.ar    1  LIG1       -0.0515
     10 C           5.0121   -1.1836    2.4604 C.ar    1  LIG1       -0.0582
     11 C           3.6142    1.3513   -0.9662 C.ar    1  LIG1       -0.0354
     12 C           1.2931    1.7284   -0.0001 C.ar    1  LIG1       -0.0358
     13 C          -1.1830    3.0068    0.1304 C.ar    1  LIG1       -0.1163
     14 C           4.7722   -1.2928    1.0906 C.ar    1  LIG1       -0.0086
     15 C           2.5682    1.0711   -0.0667 C.ar    1  LIG1        0.0077
     16 C           4.6054    0.4628   -0.6275 C.ar    1  LIG1       -0.0011
     17 C          -2.5060    3.6915    0.2009 C.3     1  LIG1       -0.0429
     18 C           5.9505    0.2620   -1.2017 C.3     1  LIG1        0.1206
     19 N           6.9045    2.5175   -2.1784 N.1     1  LIG1       -0.3863
     20 N           2.8669    0.0819    0.7797 N.ar    1  LIG1       -0.3116
     21 N           4.1119   -0.2673    0.4135 N.ar    1  LIG1       -0.2892
     22 H           6.6049   -4.1437    2.9707 H       1  LIG1        0.1246
     23 H           6.1786   -4.3380    0.5338 H       1  LIG1        0.1303
     24 H           5.8582   -2.1259    4.2036 H       1  LIG1        0.1291
     25 H           2.0444    3.6256   -0.7234 H       1  LIG1        0.1324
     26 H           0.2429   -0.0143    0.7383 H       1  LIG1        0.1313
     27 H          -0.1401    4.7490   -0.6054 H       1  LIG1        0.1190
     28 H          -1.9388    1.1169    0.8519 H       1  LIG1        0.1201
     29 H           5.0110   -2.5260   -0.6704 H       1  LIG1        0.1402
     30 H           4.6892   -0.3047    3.0132 H       1  LIG1        0.1263
     31 H           3.6486    2.0930   -1.7517 H       1  LIG1        0.1366
     32 H          -3.0455    3.5788   -0.7474 H       1  LIG1        0.0575
     33 H          -3.1270    3.2769    1.0057 H       1  LIG1        0.0542
     34 H          -2.3895    4.7630    0.4098 H       1  LIG1        0.0539
     35 H           5.9348   -0.4977   -2.0026 H       1  LIG1        0.1655
     36 H           6.6544   -0.1295   -0.4468 H       1  LIG1        0.1784
@<TRIPOS>BOND
     1     1    18    1
     2     1    19    3
     3     2     3   ar
     4     2     4   ar
     5     3     9   ar
     6     4    10   ar
     7     5     7   ar
     8     5    12   ar
     9     6     8   ar
    10     6    12   ar
    11     7    13   ar
    12     8    13   ar
    13     9    14   ar
    14    10    14   ar
    15    11    15   ar
    16    11    16   ar
    17    12    15    1
    18    13    17    1
    19    14    21    1
    20    15    20   ar
    21    16    18    1
    22    16    21   ar
    23    20    21   ar
    24     2    22    1
    25     3    23    1
    26     4    24    1
    27     5    25    1
    28     6    26    1
    29     7    27    1
    30     8    28    1
    31     9    29    1
    32    10    30    1
    33    11    31    1
    34    17    32    1
    35    17    33    1
    36    17    34    1
    37    18    35    1
    38    18    36    1
