@<TRIPOS>MOLECULE
AG-690/11481222
 39 41 0 0 0
SMALL
USER_CHARGES

@<TRIPOS>ATOM
      1 C           3.0646    2.8384   -2.1916 C.1     1  LIG1        0.0802
      2 C           5.9481   -3.4151    2.6019 C.ar    1  LIG1       -0.1028
      3 C           5.0301   -2.5221    3.1545 C.ar    1  LIG1       -0.0986
      4 C           6.3505   -3.2695    1.2743 C.ar    1  LIG1       -0.0963
      5 C           4.5145   -1.4833    2.3794 C.ar    1  LIG1       -0.0782
      6 C           5.8348   -2.2307    0.4992 C.ar    1  LIG1       -0.0739
      7 C           0.2225    0.9688   -0.2099 C.ar    1  LIG1       -0.0740
      8 C           1.1691    3.1479    0.2290 C.ar    1  LIG1       -0.0726
      9 C          -1.0564    1.4799    0.0112 C.ar    1  LIG1       -0.0738
     10 C          -0.1098    3.6590    0.4502 C.ar    1  LIG1       -0.0736
     11 C           3.1111    0.2364    0.4804 C.ar    1  LIG1       -0.0200
     12 C           3.4862    1.7716   -1.3326 C.ar    1  LIG1        0.1493
     13 C           1.3353    1.8028   -0.1009 C.ar    1  LIG1       -0.0498
     14 C           4.9169   -1.3376    1.0518 C.ar    1  LIG1       -0.0299
     15 C           2.6616    1.2727   -0.3304 C.ar    1  LIG1       -0.0014
     16 C          -1.2226    2.8248    0.3413 C.ar    1  LIG1       -0.0364
     17 C           4.3832   -0.2622    0.2500 C.ar    1  LIG1       -0.0022
     18 C           4.7416    1.2044   -1.4817 C.ar    1  LIG1        0.1208
     19 C           7.7875    0.7476   -2.1946 C.3     1  LIG1       -0.0313
     20 C           6.5058    0.7156   -2.9997 C.3     1  LIG1        0.0317
     21 N           2.7231    3.7024   -2.8871 N.1     1  LIG1       -0.3655
     22 N           5.2129    0.1967   -0.7135 N.ar    1  LIG1       -0.3380
     23 O           5.5931    1.6605   -2.4551 O.3     1  LIG1       -0.3621
     24 BR         -2.9551    3.5182    0.6401 Br      1  LIG1       -0.1053
     25 H           6.3507   -4.2229    3.2061 H       1  LIG1        0.1221
     26 H           4.7180   -2.6344    4.1887 H       1  LIG1        0.1203
     27 H           7.0662   -3.9636    0.8438 H       1  LIG1        0.1193
     28 H           3.7998   -0.7951    2.8248 H       1  LIG1        0.1308
     29 H           6.1583   -2.1292   -0.5340 H       1  LIG1        0.1393
     30 H           0.3358   -0.0818   -0.4664 H       1  LIG1        0.1353
     31 H           2.0265    3.8109    0.3169 H       1  LIG1        0.1418
     32 H          -1.9131    0.8168   -0.0783 H       1  LIG1        0.1396
     33 H          -0.2220    4.7090    0.7065 H       1  LIG1        0.1402
     34 H           2.4859   -0.1710    1.2704 H       1  LIG1        0.1462
     35 H           8.2474    1.7390   -2.2326 H       1  LIG1        0.0601
     36 H           7.5931    0.4878   -1.1489 H       1  LIG1        0.0478
     37 H           8.5021    0.0116   -2.5777 H       1  LIG1        0.0478
     38 H           6.0510   -0.2786   -2.9575 H       1  LIG1        0.1065
     39 H           6.7018    0.9761   -4.0441 H       1  LIG1        0.1065
@<TRIPOS>BOND
     1     1    12    1
     2     1    21    3
     3     2     3   ar
     4     2     4   ar
     5     3     5   ar
     6     4     6   ar
     7     5    14   ar
     8     6    14   ar
     9     7     9   ar
    10     7    13   ar
    11     8    10   ar
    12     8    13   ar
    13     9    16   ar
    14    10    16   ar
    15    11    15   ar
    16    11    17   ar
    17    12    15   ar
    18    12    18   ar
    19    13    15    1
    20    14    17    1
    21    16    24    1
    22    17    22   ar
    23    18    22   ar
    24    18    23    1
    25    19    20    1
    26    20    23    1
    27     2    25    1
    28     3    26    1
    29     4    27    1
    30     5    28    1
    31     6    29    1
    32     7    30    1
    33     8    31    1
    34     9    32    1
    35    10    33    1
    36    11    34    1
    37    19    35    1
    38    19    36    1
    39    19    37    1
    40    20    38    1
    41    20    39    1
