@<TRIPOS>MOLECULE
AG-205/12497019
 34 36 0 0 0
SMALL
USER_CHARGES

@<TRIPOS>ATOM
      1 C           1.1765    3.0649   -0.3791 C.ar    1  LIG1       -0.0633
      2 C           0.1735    1.0281    0.4473 C.ar    1  LIG1       -0.0629
      3 C           5.8425   -3.4583    1.0789 C.ar    1  LIG1       -0.0882
      4 C           5.6716   -2.2052    3.1374 C.ar    1  LIG1       -0.0935
      5 C           5.1871   -2.4314    0.3994 C.ar    1  LIG1       -0.0505
      6 C           5.0162   -1.1783    2.4579 C.ar    1  LIG1       -0.0587
      7 C          -0.0626    3.7021   -0.3123 C.ar    1  LIG1       -0.0667
      8 C          -1.0655    1.6654    0.5140 C.ar    1  LIG1       -0.0667
      9 C           3.6123    1.3516   -0.9717 C.ar    1  LIG1       -0.0225
     10 C           1.2945    1.7279    0.0006 C.ar    1  LIG1       -0.0268
     11 C           6.0847   -3.3451    2.4479 C.ar    1  LIG1       -0.1122
     12 C           4.7740   -1.2915    1.0889 C.ar    1  LIG1       -0.0053
     13 C          -1.1835    3.0024    0.1343 C.ar    1  LIG1       -0.0157
     14 C           2.5700    1.0719   -0.0677 C.ar    1  LIG1        0.0067
     15 C           4.6060    0.4653   -0.6350 C.ar    1  LIG1       -0.0203
     16 C           6.7854   -4.4430    3.1744 C.3     1  LIG1       -0.0425
     17 N           2.8735    0.0849    0.7795 N.ar    1  LIG1       -0.3164
     18 N           4.1175   -0.2633    0.4093 N.ar    1  LIG1       -0.2754
     19 N           5.8378    0.2595   -1.1484 N.pl3   1  LIG1       -0.3866
     20 CL         -2.7129    3.7873    0.2158 Cl      1  LIG1       -0.1441
     21 H           2.0404    3.6251   -0.7295 H       1  LIG1        0.1425
     22 H           0.2493   -0.0146    0.7467 H       1  LIG1        0.1435
     23 H           6.1612   -4.3430    0.5343 H       1  LIG1        0.1303
     24 H           5.8558   -2.1086    4.2041 H       1  LIG1        0.1294
     25 H           5.0039   -2.5325   -0.6677 H       1  LIG1        0.1403
     26 H           4.6995   -0.2956    3.0083 H       1  LIG1        0.1268
     27 H          -0.1398    4.7443   -0.6114 H       1  LIG1        0.1351
     28 H          -1.9305    1.1072    0.8627 H       1  LIG1        0.1342
     29 H           3.6423    2.0919   -1.7588 H       1  LIG1        0.1203
     30 H           7.8697   -4.2769    3.1636 H       1  LIG1        0.0585
     31 H           6.4535   -4.5049    4.2189 H       1  LIG1        0.0548
     32 H           6.5783   -5.4192    2.7170 H       1  LIG1        0.0551
     33 H           6.1836    0.7790   -1.9686 H       1  LIG1        0.2643
     34 H           6.4558   -0.4909   -0.8057 H       1  LIG1        0.2768
@<TRIPOS>BOND
     1     1     7   ar
     2     1    10   ar
     3     2     8   ar
     4     2    10   ar
     5     3     5   ar
     6     3    11   ar
     7     4     6   ar
     8     4    11   ar
     9     5    12   ar
    10     6    12   ar
    11     7    13   ar
    12     8    13   ar
    13     9    14   ar
    14     9    15   ar
    15    10    14    1
    16    11    16    1
    17    12    18    1
    18    13    20    1
    19    14    17   ar
    20    15    18   ar
    21    15    19    1
    22    17    18   ar
    23     1    21    1
    24     2    22    1
    25     3    23    1
    26     4    24    1
    27     5    25    1
    28     6    26    1
    29     7    27    1
    30     8    28    1
    31     9    29    1
    32    16    30    1
    33    16    31    1
    34    16    32    1
    35    19    33    1
    36    19    34    1
