@<TRIPOS>MOLECULE
AG-205/11218394
 36 39 0 0 0
SMALL
USER_CHARGES

@<TRIPOS>ATOM
      1 C          -1.4133    2.5618    0.7416 C.ar    1  LIG1       -0.1023
      2 C           5.7805   -3.3989    2.6849 C.ar    1  LIG1       -0.0959
      3 C          -1.0465    1.3526    0.1509 C.ar    1  LIG1       -0.0994
      4 C          -0.5296    3.6409    0.7284 C.ar    1  LIG1       -0.0946
      5 C           5.4408   -2.1602    3.2288 C.ar    1  LIG1       -0.0899
      6 C           5.7053   -3.5998    1.3066 C.ar    1  LIG1       -0.0864
      7 C           0.2041    1.2226   -0.4531 C.ar    1  LIG1       -0.0790
      8 C           0.7210    3.5109    0.1245 C.ar    1  LIG1       -0.0716
      9 C           5.0259   -1.1223    2.3943 C.ar    1  LIG1       -0.0562
     10 C           5.2905   -2.5619    0.4722 C.ar    1  LIG1       -0.0499
     11 C           3.3252    0.3410    0.2483 C.ar    1  LIG1        0.0118
     12 C           3.3730    1.2723   -0.7482 C.ar    1  LIG1        0.0255
     13 C           1.0879    2.3017   -0.4663 C.ar    1  LIG1       -0.0238
     14 C           4.6611    1.1515   -1.3852 C.ar    1  LIG1        0.0486
     15 C           4.9508   -1.3231    1.0160 C.ar    1  LIG1       -0.0012
     16 C           2.3698    2.1681   -1.0857 C.ar    1  LIG1        0.0381
     17 C           4.9967    1.9913   -2.4570 C.ar    1  LIG1        0.0408
     18 C           6.2744    1.9890   -3.2125 C.3     1  LIG1        0.0150
     19 N           5.3587    0.1739   -0.7817 N.ar    1  LIG1       -0.2975
     20 N           2.7244    2.9675   -2.1269 N.ar    1  LIG1       -0.2755
     21 N           4.0198    2.8777   -2.8005 N.ar    1  LIG1       -0.2741
     22 N           4.5362   -0.2855    0.1829 N.ar    1  LIG1       -0.2724
     23 H          -2.3878    2.6633    1.2103 H       1  LIG1        0.1221
     24 H           6.1053   -4.2068    3.3340 H       1  LIG1        0.1269
     25 H          -1.7351    0.5128    0.1596 H       1  LIG1        0.1200
     26 H          -0.8152    4.5832    1.1869 H       1  LIG1        0.1225
     27 H           5.5006   -2.0032    4.3017 H       1  LIG1        0.1336
     28 H           5.9714   -4.5643    0.8838 H       1  LIG1        0.1333
     29 H           0.4752    0.2735   -0.9096 H       1  LIG1        0.1234
     30 H           1.3991    4.3610    0.1213 H       1  LIG1        0.1385
     31 H           4.7648   -0.1614    2.8311 H       1  LIG1        0.1331
     32 H           5.2371   -2.7318   -0.6005 H       1  LIG1        0.1461
     33 H           2.5703    0.0706    0.9758 H       1  LIG1        0.2384
     34 H           6.2183    1.3032   -4.0698 H       1  LIG1        0.0853
     35 H           6.5228    2.9915   -3.5920 H       1  LIG1        0.0808
     36 H           7.1190    1.6773   -2.5797 H       1  LIG1        0.0858
@<TRIPOS>BOND
     1     1     3   ar
     2     1     4   ar
     3     2     5   ar
     4     2     6   ar
     5     3     7   ar
     6     4     8   ar
     7     5     9   ar
     8     6    10   ar
     9     7    13   ar
    10     8    13   ar
    11     9    15   ar
    12    10    15   ar
    13    11    12   ar
    14    11    22   ar
    15    12    14   ar
    16    12    16   ar
    17    13    16    1
    18    14    17   ar
    19    14    19   ar
    20    15    22    1
    21    16    20   ar
    22    17    18    1
    23    17    21   ar
    24    19    22   ar
    25    20    21   ar
    26     1    23    1
    27     2    24    1
    28     3    25    1
    29     4    26    1
    30     5    27    1
    31     6    28    1
    32     7    29    1
    33     8    30    1
    34     9    31    1
    35    10    32    1
    36    11    33    1
    37    18    34    1
    38    18    35    1
    39    18    36    1
