@<TRIPOS>MOLECULE
AG-690/40749446
 42 44 0 0 0
SMALL
USER_CHARGES

@<TRIPOS>ATOM
      1 C           3.0418    2.8445   -2.1782 C.1     1  LIG1        0.0761
      2 C           5.9457   -3.4140    2.6033 C.ar    1  LIG1       -0.1030
      3 C           5.5700   -2.2133    3.2056 C.ar    1  LIG1       -0.0990
      4 C           5.8063   -3.5764    1.2250 C.ar    1  LIG1       -0.0968
      5 C           5.0548   -1.1750    2.4296 C.ar    1  LIG1       -0.0792
      6 C           5.2911   -2.5381    0.4490 C.ar    1  LIG1       -0.0749
      7 C           0.2240    0.9679   -0.2117 C.ar    1  LIG1       -0.0756
      8 C           1.1689    3.1468    0.2316 C.ar    1  LIG1       -0.0742
      9 C          -1.0552    1.4772    0.0118 C.ar    1  LIG1       -0.0662
     10 C          -0.1102    3.6561    0.4551 C.ar    1  LIG1       -0.0660
     11 C           3.1105    0.2370    0.4774 C.ar    1  LIG1       -0.0187
     12 C           3.4895    1.7735   -1.3337 C.ar    1  LIG1        0.1157
     13 C           1.3361    1.8027   -0.1017 C.ar    1  LIG1       -0.0529
     14 C           4.9154   -1.3374    1.0513 C.ar    1  LIG1       -0.0320
     15 C           2.6631    1.2743   -0.3331 C.ar    1  LIG1       -0.0068
     16 C          -1.2223    2.8213    0.3453 C.ar    1  LIG1       -0.0111
     17 C           4.3824   -0.2626    0.2485 C.ar    1  LIG1       -0.0021
     18 C           4.7446    1.2052   -1.4814 C.ar    1  LIG1        0.0580
     19 C           6.7105    3.0056   -0.4455 C.3     1  LIG1       -0.0520
     20 C           8.0851    1.0622   -1.2666 C.3     1  LIG1       -0.0503
     21 C           7.2597    2.2790   -1.6674 C.3     1  LIG1       -0.0098
     22 N           2.6798    3.7104   -2.8608 N.1     1  LIG1       -0.3588
     23 N           5.2140    0.1965   -0.7135 N.ar    1  LIG1       -0.3580
     24 S           5.8975    1.7661   -2.7339 S.3     1  LIG1       -0.1256
     25 CL         -2.8009    3.4486    0.6225 Cl      1  LIG1       -0.1373
     26 H           6.3483   -4.2216    3.2075 H       1  LIG1        0.1216
     27 H           5.6800   -2.0860    4.2786 H       1  LIG1        0.1200
     28 H           6.0999   -4.5105    0.7551 H       1  LIG1        0.1191
     29 H           4.7667   -0.2449    2.9140 H       1  LIG1        0.1295
     30 H           5.1888   -2.6790   -0.6244 H       1  LIG1        0.1387
     31 H           0.3381   -0.0820   -0.4706 H       1  LIG1        0.1352
     32 H           2.0261    3.8101    0.3220 H       1  LIG1        0.1417
     33 H          -1.9130    0.8151   -0.0753 H       1  LIG1        0.1380
     34 H          -0.2255    4.7054    0.7154 H       1  LIG1        0.1386
     35 H           2.4846   -0.1707    1.2665 H       1  LIG1        0.1505
     36 H           6.0771    2.3335    0.1442 H       1  LIG1        0.0385
     37 H           7.5181    3.3505    0.2097 H       1  LIG1        0.0424
     38 H           6.1001    3.8719   -0.7250 H       1  LIG1        0.0516
     39 H           7.4728    0.3602   -0.6894 H       1  LIG1        0.0445
     40 H           8.9353    1.3468   -0.6369 H       1  LIG1        0.0536
     41 H           8.4690    0.5228   -2.1400 H       1  LIG1        0.0444
     42 H           7.8888    2.9669   -2.2422 H       1  LIG1        0.0923
@<TRIPOS>BOND
     1     1    12    1
     2     1    22    3
     3     2     3   ar
     4     2     4   ar
     5     3     5   ar
     6     4     6   ar
     7     5    14   ar
     8     6    14   ar
     9     7     9   ar
    10     7    13   ar
    11     8    10   ar
    12     8    13   ar
    13     9    16   ar
    14    10    16   ar
    15    11    15   ar
    16    11    17   ar
    17    12    15   ar
    18    12    18   ar
    19    13    15    1
    20    14    17    1
    21    16    25    1
    22    17    23   ar
    23    18    23   ar
    24    18    24    1
    25    19    21    1
    26    20    21    1
    27    21    24    1
    28     2    26    1
    29     3    27    1
    30     4    28    1
    31     5    29    1
    32     6    30    1
    33     7    31    1
    34     8    32    1
    35     9    33    1
    36    10    34    1
    37    11    35    1
    38    19    36    1
    39    19    37    1
    40    19    38    1
    41    20    39    1
    42    20    40    1
    43    20    41    1
    44    21    42    1
