@<TRIPOS>MOLECULE
AM-807/14956052
 34 37 0 0 0
SMALL
USER_CHARGES

@<TRIPOS>ATOM
      1 C           5.1027    3.5809   -4.1469 C.1     1  LIG1        0.0785
      2 C           5.6727   -2.7522    3.1045 C.ar    1  LIG1       -0.1011
      3 C           1.4404    2.8336    0.6577 C.ar    1  LIG1       -0.0764
      4 C           0.5458    1.2037   -0.8852 C.ar    1  LIG1       -0.0762
      5 C           0.1766    3.4110    0.7806 C.ar    1  LIG1       -0.0672
      6 C          -0.7180    1.7812   -0.7623 C.ar    1  LIG1       -0.0666
      7 C           5.1911   -1.5010    2.6221 C.ar    1  LIG1       -0.0817
      8 C           3.3254    0.1078    0.5527 C.ar    1  LIG1       -0.0154
      9 C           5.8735   -3.6569    2.0853 C.ar    1  LIG1       -0.0423
     10 C           4.8878    2.6748   -3.0651 C.ar    1  LIG1        0.1472
     11 C           3.8360    1.5735   -1.2921 C.ar    1  LIG1        0.0192
     12 C           1.6250    1.7299   -0.1753 C.ar    1  LIG1       -0.0590
     13 C           2.9336    1.1326   -0.3029 C.ar    1  LIG1       -0.0344
     14 C           3.7435    2.5824   -2.3038 C.ar    1  LIG1       -0.0253
     15 C          -0.9026    2.8847    0.0706 C.ar    1  LIG1       -0.0117
     16 C           4.5885   -0.4336    0.3922 C.ar    1  LIG1        0.0169
     17 C           5.0424   -1.4970    1.2525 C.ar    1  LIG1        0.0174
     18 C           5.0731    0.9393   -1.3394 C.ar    1  LIG1        0.0739
     19 N           5.2773    4.3175   -5.0265 N.1     1  LIG1       -0.3646
     20 N           5.4968   -0.0564   -0.5330 N.ar    1  LIG1       -0.3383
     21 N           2.6554    3.3697   -2.5042 N.pl3   1  LIG1       -0.4029
     22 S           5.4821   -2.9974    0.5542 S.2     1  LIG1       -0.1154
     23 S           6.0799    1.5530   -2.5714 S.2     1  LIG1       -0.0039
     24 CL         -2.4614    3.5986    0.2216 Cl      1  LIG1       -0.1360
     25 H           5.8629   -2.9774    4.1456 H       1  LIG1        0.1178
     26 H           2.2718    3.2552    1.2174 H       1  LIG1        0.1413
     27 H           0.6739    0.3444   -1.5393 H       1  LIG1        0.1410
     28 H           0.0472    4.2719    1.4318 H       1  LIG1        0.1374
     29 H          -1.5498    1.3613   -1.3224 H       1  LIG1        0.1388
     30 H           4.9687   -0.6506    3.2549 H       1  LIG1        0.1382
     31 H           2.6551   -0.2569    1.3268 H       1  LIG1        0.1495
     32 H           6.2318   -4.6736    2.1665 H       1  LIG1        0.1737
     33 H           2.6495    4.1136   -3.2118 H       1  LIG1        0.2637
     34 H           1.8307    3.3166   -1.8951 H       1  LIG1        0.2640
@<TRIPOS>BOND
     1     1    10    1
     2     1    19    3
     3     2     7   ar
     4     2     9   ar
     5     3     5   ar
     6     3    12   ar
     7     4     6   ar
     8     4    12   ar
     9     5    15   ar
    10     6    15   ar
    11     7    17   ar
    12     8    13   ar
    13     8    16   ar
    14     9    22   ar
    15    10    14   ar
    16    10    23   ar
    17    11    13   ar
    18    11    14   ar
    19    11    18   ar
    20    12    13    1
    21    14    21    1
    22    15    24    1
    23    16    17    1
    24    16    20   ar
    25    17    22   ar
    26    18    20   ar
    27    18    23   ar
    28     2    25    1
    29     3    26    1
    30     4    27    1
    31     5    28    1
    32     6    29    1
    33     7    30    1
    34     8    31    1
    35     9    32    1
    36    21    33    1
    37    21    34    1
