@<TRIPOS>MOLECULE
AG-927/42926101
 29 31 0 0 0
SMALL
USER_CHARGES

@<TRIPOS>ATOM
      1 C          -1.1850    2.9811    0.1565 C.ar    1  LIG1       -0.1023
      2 C           6.0595   -3.3433    2.4607 C.ar    1  LIG1       -0.0966
      3 C          -0.0171    3.7241    0.3280 C.ar    1  LIG1       -0.0966
      4 C          -1.1094    1.6110   -0.0942 C.ar    1  LIG1       -0.0964
      5 C           5.8278   -3.4590    1.0901 C.ar    1  LIG1       -0.0871
      6 C           5.6469   -2.1992    3.1437 C.ar    1  LIG1       -0.0899
      7 C           1.2265    3.0971    0.2486 C.ar    1  LIG1       -0.0743
      8 C           0.1340    0.9840   -0.1737 C.ar    1  LIG1       -0.0741
      9 C           5.1837   -2.4305    0.4025 C.ar    1  LIG1       -0.0509
     10 C           5.0027   -1.1707    2.4560 C.ar    1  LIG1       -0.0554
     11 C           1.3020    1.7270   -0.0022 C.ar    1  LIG1       -0.0260
     12 C           4.7711   -1.2863    1.0854 C.ar    1  LIG1       -0.0021
     13 C           3.6268    1.3593   -0.9859 C.ar    1  LIG1        0.0847
     14 C           2.5821    1.0814   -0.0841 C.ar    1  LIG1        0.0494
     15 C           4.6181    0.4711   -0.6471 C.ar    1  LIG1        0.1076
     16 N           2.8817    0.0936    0.7636 N.ar    1  LIG1       -0.2872
     17 N           4.1260   -0.2568    0.3960 N.ar    1  LIG1       -0.2563
     18 CL          3.6402    2.5328   -2.2091 Cl      1  LIG1       -0.1078
     19 CL          6.1715    0.2010   -1.2811 Cl      1  LIG1       -0.0332
     20 H          -2.1533    3.4689    0.2194 H       1  LIG1        0.1216
     21 H           6.5594   -4.1446    2.9970 H       1  LIG1        0.1263
     22 H          -0.0757    4.7906    0.5244 H       1  LIG1        0.1205
     23 H          -2.0190    1.0325   -0.2265 H       1  LIG1        0.1217
     24 H           6.1478   -4.3503    0.5584 H       1  LIG1        0.1316
     25 H           5.8263   -2.1104    4.2113 H       1  LIG1        0.1317
     26 H           2.1279    3.6902    0.3846 H       1  LIG1        0.1319
     27 H           0.1760   -0.0849   -0.3698 H       1  LIG1        0.1329
     28 H           5.0086   -2.5337   -0.6658 H       1  LIG1        0.1420
     29 H           4.6857   -0.2846    3.0007 H       1  LIG1        0.1342
@<TRIPOS>BOND
     1     1     3   ar
     2     1     4   ar
     3     2     5   ar
     4     2     6   ar
     5     3     7   ar
     6     4     8   ar
     7     5     9   ar
     8     6    10   ar
     9     7    11   ar
    10     8    11   ar
    11     9    12   ar
    12    10    12   ar
    13    11    14    1
    14    12    17    1
    15    13    14   ar
    16    13    15   ar
    17    13    18    1
    18    14    16   ar
    19    15    17   ar
    20    15    19    1
    21    16    17   ar
    22     1    20    1
    23     2    21    1
    24     3    22    1
    25     4    23    1
    26     5    24    1
    27     6    25    1
    28     7    26    1
    29     8    27    1
    30     9    28    1
    31    10    29    1
