@<TRIPOS>MOLECULE
AK-087/42718336
 37 39 0 0 0
SMALL
USER_CHARGES

@<TRIPOS>ATOM
      1 C           5.9730    0.6048   -2.6382 C.1     1  LIG1        0.0326
      2 C           1.2279    3.1003    0.2471 C.ar    1  LIG1       -0.0637
      3 C           0.1205    0.9962   -0.1811 C.ar    1  LIG1       -0.0633
      4 C           5.1924   -2.4285    0.3973 C.ar    1  LIG1       -0.0465
      5 C           5.0122   -1.1832    2.4598 C.ar    1  LIG1       -0.0493
      6 C           5.8525   -3.4540    1.0742 C.ar    1  LIG1       -0.0444
      7 C           5.6722   -2.2087    3.1367 C.ar    1  LIG1       -0.0533
      8 C          -0.0104    3.7390    0.3115 C.ar    1  LIG1       -0.0741
      9 C          -1.1178    1.6349   -0.1167 C.ar    1  LIG1       -0.0740
     10 C           3.6140    1.3513   -0.9662 C.ar    1  LIG1       -0.0348
     11 C           1.2935    1.7289    0.0006 C.ar    1  LIG1       -0.0277
     12 C           4.7723   -1.2931    1.0901 C.ar    1  LIG1       -0.0056
     13 C           6.0924   -3.3442    2.4439 C.ar    1  LIG1       -0.0066
     14 C          -1.1833    3.0062    0.1297 C.ar    1  LIG1       -0.0399
     15 C           2.5683    1.0713   -0.0663 C.ar    1  LIG1        0.0115
     16 C           4.6052    0.4626   -0.6279 C.ar    1  LIG1       -0.0005
     17 C           6.9478   -4.1667    4.5049 C.3     1  LIG1        0.0253
     18 C           5.9500    0.2615   -1.2026 C.3     1  LIG1        0.1208
     19 N           5.9806    0.8759   -3.7665 N.1     1  LIG1       -0.3856
     20 N           2.8672    0.0821    0.7799 N.ar    1  LIG1       -0.3100
     21 N           4.1119   -0.2673    0.4132 N.ar    1  LIG1       -0.2891
     22 O           6.7357   -4.3449    3.1053 O.3     1  LIG1       -0.4154
     23 BR         -2.8610    3.8718    0.2156 Br      1  LIG1       -0.1109
     24 H           2.1330    3.6856    0.3909 H       1  LIG1        0.1416
     25 H           0.1549   -0.0735   -0.3755 H       1  LIG1        0.1424
     26 H           5.0122   -2.5272   -0.6705 H       1  LIG1        0.1410
     27 H           4.6906   -0.3033    3.0117 H       1  LIG1        0.1502
     28 H           6.1774   -4.3364    0.5295 H       1  LIG1        0.1417
     29 H           5.8554   -2.1169    4.2038 H       1  LIG1        0.1253
     30 H          -0.0435    4.8082    0.5030 H       1  LIG1        0.1378
     31 H          -2.0224    1.0498   -0.2624 H       1  LIG1        0.1366
     32 H           3.6484    2.0929   -1.7517 H       1  LIG1        0.1375
     33 H           7.4705   -5.0372    4.9087 H       1  LIG1        0.0907
     34 H           5.9853   -4.0408    5.0071 H       1  LIG1        0.0909
     35 H           7.5575   -3.2736    4.6611 H       1  LIG1        0.1238
     36 H           6.2861   -0.7830   -1.0800 H       1  LIG1        0.1659
     37 H           6.7059    0.8711   -0.6776 H       1  LIG1        0.1789
@<TRIPOS>BOND
     1     1    18    1
     2     1    19    3
     3     2     8   ar
     4     2    11   ar
     5     3     9   ar
     6     3    11   ar
     7     4     6   ar
     8     4    12   ar
     9     5     7   ar
    10     5    12   ar
    11     6    13   ar
    12     7    13   ar
    13     8    14   ar
    14     9    14   ar
    15    10    15   ar
    16    10    16   ar
    17    11    15    1
    18    12    21    1
    19    13    22    1
    20    14    23    1
    21    15    20   ar
    22    16    18    1
    23    16    21   ar
    24    17    22    1
    25    20    21   ar
    26     2    24    1
    27     3    25    1
    28     4    26    1
    29     5    27    1
    30     6    28    1
    31     7    29    1
    32     8    30    1
    33     9    31    1
    34    10    32    1
    35    17    33    1
    36    17    34    1
    37    17    35    1
    38    18    36    1
    39    18    37    1
