@<TRIPOS>MOLECULE
AH-487/40652383
 40 43 0 0 0
SMALL
USER_CHARGES

@<TRIPOS>ATOM
      1 C           6.0825   -3.3468    2.4509 C.ar    1  LIG1       -0.0991
      2 C           6.3636   -3.1110    1.1051 C.ar    1  LIG1       -0.0903
      3 C           5.1464   -2.5557    3.1169 C.ar    1  LIG1       -0.0896
      4 C          -0.1119    3.4843    0.8856 C.ar    1  LIG1       -0.0839
      5 C           1.1288    2.8515    0.8109 C.ar    1  LIG1       -0.0654
      6 C           5.7086   -2.0841    0.4255 C.ar    1  LIG1       -0.0521
      7 C           4.4914   -1.5288    2.4371 C.ar    1  LIG1       -0.0513
      8 C          -1.1889    2.9975    0.1447 C.ar    1  LIG1       -0.0761
      9 C           0.2157    1.2450   -0.7456 C.ar    1  LIG1       -0.0497
     10 C           5.1220    2.1403   -2.6657 C.ar    1  LIG1       -0.0239
     11 C           3.6236    1.3582   -0.9811 C.ar    1  LIG1        0.0501
     12 C           1.2927    1.7319   -0.0047 C.ar    1  LIG1       -0.0154
     13 C           3.8789    2.2379   -2.0403 C.ar    1  LIG1        0.0665
     14 C           4.7725   -1.2930    1.0914 C.ar    1  LIG1        0.0043
     15 C          -1.0250    1.8780   -0.6709 C.ar    1  LIG1       -0.0300
     16 C           2.5757    1.0800   -0.0810 C.ar    1  LIG1        0.0511
     17 C           6.0304    1.1894   -2.2126 C.ar    1  LIG1       -0.0246
     18 C           4.6177    0.4579   -0.6304 C.ar    1  LIG1        0.0657
     19 C           7.3586    1.0964   -2.8934 C.3     1  LIG1        0.0068
     20 C           2.9011    3.2575   -2.5235 C.3     1  LIG1        0.3660
     21 N           2.8716    0.0913    0.7692 N.ar    1  LIG1       -0.2721
     22 N           5.8302    0.3182   -1.1942 N.ar    1  LIG1       -0.3437
     23 N           4.1180   -0.2667    0.4111 N.ar    1  LIG1       -0.2421
     24 F           3.3638    4.0059   -3.5675 F       1  LIG1       -0.1806
     25 F           1.7253    2.7202   -2.9623 F       1  LIG1       -0.1776
     26 F           2.5567    4.1532   -1.5537 F       1  LIG1       -0.1766
     27 BR         -2.4845    1.2176   -1.6739 Br      1  LIG1       -0.1067
     28 H           6.5909   -4.1473    2.9801 H       1  LIG1        0.1225
     29 H           7.0915   -3.7276    0.5861 H       1  LIG1        0.1284
     30 H           4.9270   -2.7409    4.1645 H       1  LIG1        0.1293
     31 H          -0.2394    4.3557    1.5213 H       1  LIG1        0.1343
     32 H           1.9589    3.2432    1.3943 H       1  LIG1        0.1489
     33 H           5.9364   -1.9115   -0.6236 H       1  LIG1        0.1369
     34 H           3.7634   -0.9202    2.9681 H       1  LIG1        0.1383
     35 H          -2.1491    3.5022    0.2143 H       1  LIG1        0.1411
     36 H           0.3443    0.3712   -1.3815 H       1  LIG1        0.1490
     37 H           5.3760    2.7978   -3.4925 H       1  LIG1        0.1550
     38 H           8.0813    1.7581   -2.4037 H       1  LIG1        0.0875
     39 H           7.7455    0.0711   -2.8649 H       1  LIG1        0.0849
     40 H           7.2811    1.3809   -3.9494 H       1  LIG1        0.0844
@<TRIPOS>BOND
     1     1     2   ar
     2     1     3   ar
     3     2     6   ar
     4     3     7   ar
     5     4     5   ar
     6     4     8   ar
     7     5    12   ar
     8     6    14   ar
     9     7    14   ar
    10     8    15   ar
    11     9    12   ar
    12     9    15   ar
    13    10    13   ar
    14    10    17   ar
    15    11    13   ar
    16    11    16   ar
    17    11    18   ar
    18    12    16    1
    19    13    20    1
    20    14    23    1
    21    15    27    1
    22    16    21   ar
    23    17    19    1
    24    17    22   ar
    25    18    22   ar
    26    18    23   ar
    27    20    24    1
    28    20    25    1
    29    20    26    1
    30    21    23   ar
    31     1    28    1
    32     2    29    1
    33     3    30    1
    34     4    31    1
    35     5    32    1
    36     6    33    1
    37     7    34    1
    38     8    35    1
    39     9    36    1
    40    10    37    1
    41    19    38    1
    42    19    39    1
    43    19    40    1
