@<TRIPOS>MOLECULE
AG-205/36992102
 42 45 0 0 0
SMALL
USER_CHARGES

@<TRIPOS>ATOM
      1 C           5.3332   -2.9390    3.0632 C.ar    1  LIG1       -0.1008
      2 C           0.4642    0.9486   -0.3221 C.ar    1  LIG1       -0.0745
      3 C           1.4990    3.0915    0.0955 C.ar    1  LIG1       -0.0752
      4 C          -0.7962    1.5333   -0.1990 C.ar    1  LIG1       -0.0419
      5 C           0.2385    3.6762    0.2186 C.ar    1  LIG1       -0.0421
      6 C           4.6694   -1.7837    2.5582 C.ar    1  LIG1       -0.0813
      7 C           3.3018    0.0935    0.5515 C.ar    1  LIG1       -0.0158
      8 C           6.1554   -3.5167    2.1210 C.ar    1  LIG1       -0.0420
      9 C           3.8224    1.5602   -1.2896 C.ar    1  LIG1        0.0174
     10 C           1.6118    1.7276   -0.1748 C.ar    1  LIG1       -0.0591
     11 C           2.9166    1.1223   -0.3021 C.ar    1  LIG1       -0.0368
     12 C           3.7365    2.5718   -2.2993 C.ar    1  LIG1       -0.0326
     13 C          -0.9090    2.8970    0.0714 C.ar    1  LIG1        0.0666
     14 C           4.5619   -0.4550    0.3909 C.ar    1  LIG1        0.0168
     15 C           5.0098   -1.5225    1.2490 C.ar    1  LIG1        0.0182
     16 C           4.8819    2.6592   -3.0595 C.ar    1  LIG1        0.1305
     17 C           5.0558    0.9189   -1.3374 C.ar    1  LIG1        0.0681
     18 C           5.1840    3.5319   -4.1503 C.2     1  LIG1        0.1883
     19 C           3.0988    3.8483   -6.5335 C.3     1  LIG1       -0.0331
     20 C           3.9995    4.8203   -5.8015 C.3     1  LIG1        0.0277
     21 N           5.4731   -0.0810   -0.5328 N.ar    1  LIG1       -0.3393
     22 N           2.6591    3.3697   -2.5063 N.pl3   1  LIG1       -0.3968
     23 O           6.2596    3.5454   -4.7921 O.2     1  LIG1       -0.4535
     24 O           4.1461    4.3887   -4.4444 O.3     1  LIG1       -0.3479
     25 F          -2.1194    3.4585    0.1895 F       1  LIG1       -0.2634
     26 S           6.1250   -2.6673    0.6344 S.2     1  LIG1       -0.1148
     27 S           6.0671    1.5294   -2.5673 S.2     1  LIG1       -0.0214
     28 H           5.2145   -3.3265    4.0667 H       1  LIG1        0.1180
     29 H           0.5356   -0.1159   -0.5328 H       1  LIG1        0.1444
     30 H           2.3841    3.7122    0.2129 H       1  LIG1        0.1436
     31 H          -1.6899    0.9269   -0.3134 H       1  LIG1        0.1361
     32 H           0.1500    4.7379    0.4288 H       1  LIG1        0.1370
     33 H           3.9791   -1.1792    3.1335 H       1  LIG1        0.1386
     34 H           2.6284   -0.2686    1.3242 H       1  LIG1        0.1484
     35 H           6.7728   -4.3966    2.2348 H       1  LIG1        0.1740
     36 H           3.5273    2.8421   -6.5317 H       1  LIG1        0.0489
     37 H           2.1093    3.8121   -6.0662 H       1  LIG1        0.0489
     38 H           2.9495    4.1668   -7.5705 H       1  LIG1        0.0583
     39 H           3.5652    5.8245   -5.8071 H       1  LIG1        0.1008
     40 H           4.9879    4.8546   -6.2692 H       1  LIG1        0.1007
     41 H           1.7935    3.2627   -1.9634 H       1  LIG1        0.2751
     42 H           2.6287    4.0498   -3.2755 H       1  LIG1        0.2660
@<TRIPOS>BOND
     1     1     6   ar
     2     1     8   ar
     3     2     4   ar
     4     2    10   ar
     5     3     5   ar
     6     3    10   ar
     7     4    13   ar
     8     5    13   ar
     9     6    15   ar
    10     7    11   ar
    11     7    14   ar
    12     8    26   ar
    13     9    11   ar
    14     9    12   ar
    15     9    17   ar
    16    10    11    1
    17    12    16   ar
    18    12    22    1
    19    13    25    1
    20    14    15    1
    21    14    21   ar
    22    15    26   ar
    23    16    18    1
    24    16    27   ar
    25    17    21   ar
    26    17    27   ar
    27    18    23    2
    28    18    24    1
    29    19    20    1
    30    20    24    1
    31     1    28    1
    32     2    29    1
    33     3    30    1
    34     4    31    1
    35     5    32    1
    36     6    33    1
    37     7    34    1
    38     8    35    1
    39    19    36    1
    40    19    37    1
    41    19    38    1
    42    20    39    1
    43    20    40    1
    44    22    41    1
    45    22    42    1
