@<TRIPOS>MOLECULE
AH-357/03542020
 30 32 0 0 0
SMALL
USER_CHARGES

@<TRIPOS>ATOM
      1 C          -1.2485    3.0151    0.1601 C.ar    1  LIG1       -0.1068
      2 C           6.1127   -3.4098    2.4979 C.ar    1  LIG1       -0.1068
      3 C          -0.1463    3.7378   -0.2965 C.ar    1  LIG1       -0.1004
      4 C          -1.1031    1.6760    0.5224 C.ar    1  LIG1       -0.1048
      5 C           6.4096   -3.1852    1.1536 C.ar    1  LIG1       -0.1049
      6 C           5.1785   -2.6047    3.1497 C.ar    1  LIG1       -0.1003
      7 C           1.1014    3.1213   -0.3908 C.ar    1  LIG1       -0.0818
      8 C           0.1446    1.0594    0.4281 C.ar    1  LIG1       -0.0891
      9 C           5.7723   -2.1556    0.4613 C.ar    1  LIG1       -0.0891
     10 C           4.5412   -1.5751    2.4574 C.ar    1  LIG1       -0.0817
     11 C           3.5834    1.3865   -0.9882 C.ar    1  LIG1       -0.0895
     12 C           4.6217    0.4811   -0.6580 C.ar    1  LIG1       -0.0895
     13 C           1.2469    1.7821   -0.0286 C.ar    1  LIG1       -0.0627
     14 C           4.8381   -1.3505    1.1131 C.ar    1  LIG1       -0.0627
     15 C           2.5372    1.1451   -0.1253 C.ar    1  LIG1       -0.0650
     16 C           4.1785   -0.2863    0.3967 C.ar    1  LIG1       -0.0650
     17 N           2.9100    0.1260    0.7119 N.ar    1  LIG1       -0.3647
     18 H          -2.2198    3.4953    0.2342 H       1  LIG1        0.1153
     19 H           6.6085   -4.2118    3.0368 H       1  LIG1        0.1153
     20 H          -0.2599    4.7804   -0.5788 H       1  LIG1        0.1208
     21 H          -1.9611    1.1136    0.8791 H       1  LIG1        0.1173
     22 H           7.1372   -3.8119    0.6464 H       1  LIG1        0.1174
     23 H           4.9464   -2.7804    4.1963 H       1  LIG1        0.1208
     24 H           1.9515    3.6989   -0.7461 H       1  LIG1        0.1285
     25 H           0.2414    0.0146    0.7134 H       1  LIG1        0.1113
     26 H           6.0127   -1.9948   -0.5870 H       1  LIG1        0.1112
     27 H           3.8162   -0.9557    2.9800 H       1  LIG1        0.1285
     28 H           3.6019    2.1323   -1.7714 H       1  LIG1        0.1225
     29 H           5.5863    0.4013   -1.1407 H       1  LIG1        0.1225
     30 H           2.3367   -0.2622    1.4490 H       1  LIG1        0.3335
@<TRIPOS>BOND
     1     1     3   ar
     2     1     4   ar
     3     2     5   ar
     4     2     6   ar
     5     3     7   ar
     6     4     8   ar
     7     5     9   ar
     8     6    10   ar
     9     7    13   ar
    10     8    13   ar
    11     9    14   ar
    12    10    14   ar
    13    11    12   ar
    14    11    15   ar
    15    12    16   ar
    16    13    15    1
    17    14    16    1
    18    15    17   ar
    19    16    17   ar
    20     1    18    1
    21     2    19    1
    22     3    20    1
    23     4    21    1
    24     5    22    1
    25     6    23    1
    26     7    24    1
    27     8    25    1
    28     9    26    1
    29    10    27    1
    30    11    28    1
    31    12    29    1
    32    17    30    1
