@<TRIPOS>MOLECULE
AG-690/40749447
 37 39 0 0 0
SMALL
USER_CHARGES

@<TRIPOS>ATOM
      1 C           3.0418    2.8445   -2.1782 C.1     1  LIG1        0.0773
      2 C           7.9219    2.5079   -1.0819 C.1     1  LIG1        0.0370
      3 C           5.9457   -3.4140    2.6033 C.ar    1  LIG1       -0.1024
      4 C           5.5700   -2.2133    3.2056 C.ar    1  LIG1       -0.0962
      5 C           5.8063   -3.5764    1.2250 C.ar    1  LIG1       -0.0985
      6 C           5.0548   -1.1750    2.4296 C.ar    1  LIG1       -0.0746
      7 C           5.2911   -2.5381    0.4490 C.ar    1  LIG1       -0.0789
      8 C           0.2240    0.9679   -0.2117 C.ar    1  LIG1       -0.0741
      9 C           1.1689    3.1468    0.2316 C.ar    1  LIG1       -0.0756
     10 C          -1.0552    1.4772    0.0118 C.ar    1  LIG1       -0.0656
     11 C          -0.1102    3.6561    0.4551 C.ar    1  LIG1       -0.0659
     12 C           3.1105    0.2370    0.4774 C.ar    1  LIG1       -0.0156
     13 C           3.4895    1.7735   -1.3337 C.ar    1  LIG1        0.1181
     14 C           1.3361    1.8027   -0.1017 C.ar    1  LIG1       -0.0522
     15 C           4.9154   -1.3374    1.0513 C.ar    1  LIG1       -0.0312
     16 C           2.6631    1.2743   -0.3331 C.ar    1  LIG1       -0.0044
     17 C          -1.2223    2.8213    0.3453 C.ar    1  LIG1       -0.0105
     18 C           4.3824   -0.2626    0.2485 C.ar    1  LIG1       -0.0013
     19 C           4.7446    1.2052   -1.4814 C.ar    1  LIG1        0.0710
     20 C           6.7562    3.0415   -1.7894 C.3     1  LIG1        0.1445
     21 N           2.6798    3.7104   -2.8608 N.1     1  LIG1       -0.3556
     22 N           8.8467    2.0903   -0.5187 N.1     1  LIG1       -0.3767
     23 N           5.2140    0.1965   -0.7135 N.ar    1  LIG1       -0.3585
     24 S           5.8975    1.7661   -2.7339 S.3     1  LIG1       -0.0608
     25 CL         -2.8009    3.4486    0.6225 Cl      1  LIG1       -0.1364
     26 H           6.3483   -4.2216    3.2075 H       1  LIG1        0.1222
     27 H           5.6800   -2.0860    4.2786 H       1  LIG1        0.1199
     28 H           6.0999   -4.5105    0.7551 H       1  LIG1        0.1205
     29 H           4.7667   -0.2449    2.9140 H       1  LIG1        0.1390
     30 H           5.1888   -2.6790   -0.6244 H       1  LIG1        0.1301
     31 H           0.3381   -0.0820   -0.4706 H       1  LIG1        0.1424
     32 H           2.0261    3.8101    0.3220 H       1  LIG1        0.1357
     33 H          -1.9130    0.8151   -0.0753 H       1  LIG1        0.1390
     34 H          -0.2255    4.7054    0.7154 H       1  LIG1        0.1384
     35 H           2.4846   -0.1707    1.2665 H       1  LIG1        0.1541
     36 H           7.0605    3.8348   -2.4787 H       1  LIG1        0.1732
     37 H           6.0482    3.4750   -1.0765 H       1  LIG1        0.1732
@<TRIPOS>BOND
     1     1    13    1
     2     1    21    3
     3     2    20    1
     4     2    22    3
     5     3     4   ar
     6     3     5   ar
     7     4     6   ar
     8     5     7   ar
     9     6    15   ar
    10     7    15   ar
    11     8    10   ar
    12     8    14   ar
    13     9    11   ar
    14     9    14   ar
    15    10    17   ar
    16    11    17   ar
    17    12    16   ar
    18    12    18   ar
    19    13    16   ar
    20    13    19   ar
    21    14    16    1
    22    15    18    1
    23    17    25    1
    24    18    23   ar
    25    19    23   ar
    26    19    24    1
    27    20    24    1
    28     3    26    1
    29     4    27    1
    30     5    28    1
    31     6    29    1
    32     7    30    1
    33     8    31    1
    34     9    32    1
    35    10    33    1
    36    11    34    1
    37    12    35    1
    38    20    36    1
    39    20    37    1
