@<TRIPOS>MOLECULE
AG-690/36427043
 39 41 0 0 0
SMALL
USER_CHARGES

@<TRIPOS>ATOM
      1 C           3.0414    2.8443   -2.1783 C.1     1  LIG1        0.0760
      2 C          -1.2224    2.8213    0.3447 C.ar    1  LIG1       -0.1020
      3 C           5.9459   -3.4140    2.6033 C.ar    1  LIG1       -0.1032
      4 C          -1.0550    1.4771    0.0119 C.ar    1  LIG1       -0.0988
      5 C          -0.1104    3.6564    0.4543 C.ar    1  LIG1       -0.0989
      6 C           5.5704   -2.2132    3.2056 C.ar    1  LIG1       -0.0992
      7 C           5.8061   -3.5765    1.2250 C.ar    1  LIG1       -0.0969
      8 C           0.2242    0.9679   -0.2110 C.ar    1  LIG1       -0.0867
      9 C           1.1688    3.1471    0.2313 C.ar    1  LIG1       -0.0879
     10 C           5.0552   -1.1749    2.4295 C.ar    1  LIG1       -0.0792
     11 C           5.2909   -2.5383    0.4489 C.ar    1  LIG1       -0.0749
     12 C           3.1105    0.2370    0.4776 C.ar    1  LIG1       -0.0191
     13 C           3.4893    1.7733   -1.3337 C.ar    1  LIG1        0.1151
     14 C           1.3363    1.8029   -0.1013 C.ar    1  LIG1       -0.0600
     15 C           4.9154   -1.3375    1.0513 C.ar    1  LIG1       -0.0322
     16 C           2.6630    1.2744   -0.3329 C.ar    1  LIG1       -0.0086
     17 C           4.3824   -0.2627    0.2485 C.ar    1  LIG1       -0.0034
     18 C           4.7443    1.2049   -1.4817 C.ar    1  LIG1        0.0552
     19 C           4.3233    1.3128   -4.9250 C.3     1  LIG1       -0.0500
     20 C           5.4127    0.6724   -4.0861 C.3     1  LIG1       -0.0006
     21 N           2.6794    3.7101   -2.8609 N.1     1  LIG1       -0.3599
     22 N           5.2138    0.1962   -0.7138 N.ar    1  LIG1       -0.3609
     23 S           5.8969    1.7656   -2.7344 S.3     1  LIG1       -0.1280
     24 H          -2.2187    3.2179    0.5165 H       1  LIG1        0.1223
     25 H           6.3486   -4.2216    3.2075 H       1  LIG1        0.1215
     26 H          -1.9208    0.8272   -0.0751 H       1  LIG1        0.1218
     27 H          -0.2402    4.7034    0.7119 H       1  LIG1        0.1213
     28 H           5.6807   -2.0859    4.2785 H       1  LIG1        0.1199
     29 H           6.0996   -4.5107    0.7552 H       1  LIG1        0.1190
     30 H           0.3382   -0.0822   -0.4698 H       1  LIG1        0.1291
     31 H           2.0262    3.8102    0.3199 H       1  LIG1        0.1231
     32 H           4.7672   -0.2448    2.9139 H       1  LIG1        0.1296
     33 H           5.1883   -2.6793   -0.6244 H       1  LIG1        0.1380
     34 H           2.4847   -0.1706    1.2668 H       1  LIG1        0.1499
     35 H           3.4318    1.5314   -4.3274 H       1  LIG1        0.0430
     36 H           4.6676    2.2427   -5.3901 H       1  LIG1        0.0430
     37 H           4.0234    0.6321   -5.7288 H       1  LIG1        0.0523
     38 H           6.2922    0.4630   -4.7025 H       1  LIG1        0.0850
     39 H           5.0597   -0.2737   -3.6647 H       1  LIG1        0.0850
@<TRIPOS>BOND
     1     1    13    1
     2     1    21    3
     3     2     4   ar
     4     2     5   ar
     5     3     6   ar
     6     3     7   ar
     7     4     8   ar
     8     5     9   ar
     9     6    10   ar
    10     7    11   ar
    11     8    14   ar
    12     9    14   ar
    13    10    15   ar
    14    11    15   ar
    15    12    16   ar
    16    12    17   ar
    17    13    16   ar
    18    13    18   ar
    19    14    16    1
    20    15    17    1
    21    17    22   ar
    22    18    22   ar
    23    18    23    1
    24    19    20    1
    25    20    23    1
    26     2    24    1
    27     3    25    1
    28     4    26    1
    29     5    27    1
    30     6    28    1
    31     7    29    1
    32     8    30    1
    33     9    31    1
    34    10    32    1
    35    11    33    1
    36    12    34    1
    37    19    35    1
    38    19    36    1
    39    19    37    1
    40    20    38    1
    41    20    39    1
