@<TRIPOS>MOLECULE
AO-476/43201397
 44 48 0 0 0
SMALL
USER_CHARGES

@<TRIPOS>ATOM
      1 C           0.3153   -0.8889    3.1060 C.ar    1  LIG1       -0.0965
      2 C          -1.4775    2.5487    0.7911 C.ar    1  LIG1       -0.0991
      3 C           5.9565   -3.4533    2.6359 C.ar    1  LIG1       -0.0949
      4 C           0.3679   -1.4968    1.8517 C.ar    1  LIG1       -0.0907
      5 C           1.2435    0.0964    3.4429 C.ar    1  LIG1       -0.0941
      6 C          -0.3991    3.3121    1.2382 C.ar    1  LIG1       -0.0943
      7 C          -1.3128    1.6675   -0.2775 C.ar    1  LIG1       -0.0929
      8 C           5.5705   -2.2468    3.2198 C.ar    1  LIG1       -0.0876
      9 C           5.8654   -3.6201    1.2540 C.ar    1  LIG1       -0.0858
     10 C           1.3487   -1.1196    0.9344 C.ar    1  LIG1       -0.0726
     11 C           2.2242    0.4737    2.5257 C.ar    1  LIG1       -0.0769
     12 C           0.8441    3.1943    0.6166 C.ar    1  LIG1       -0.0708
     13 C          -0.0697    1.5497   -0.8991 C.ar    1  LIG1       -0.0701
     14 C           5.0933   -1.2071    2.4218 C.ar    1  LIG1       -0.0529
     15 C           5.3883   -2.5802    0.4560 C.ar    1  LIG1       -0.0497
     16 C           2.2769   -0.1342    1.2714 C.ar    1  LIG1       -0.0277
     17 C           1.0088    2.3131   -0.4520 C.ar    1  LIG1       -0.0120
     18 C           3.2930    1.2267   -0.6501 C.ar    1  LIG1        0.0624
     19 C           5.0023   -1.3738    1.0399 C.ar    1  LIG1        0.0047
     20 C           3.2932    0.2575    0.3198 C.ar    1  LIG1        0.0341
     21 C           4.5511    1.1226   -1.2716 C.ar    1  LIG1        0.0959
     22 C           2.3241    2.1885   -1.1098 C.ar    1  LIG1        0.0493
     23 C           4.8582    1.9854   -2.3787 C.ar    1  LIG1        0.0287
     24 N           5.3159    0.1737   -0.7238 N.ar    1  LIG1       -0.2591
     25 N           2.6111    2.9489   -2.1299 N.ar    1  LIG1       -0.3008
     26 N           4.5245   -0.3322    0.2415 N.ar    1  LIG1       -0.2507
     27 N           3.8411    2.8497   -2.7430 N.ar    1  LIG1       -0.2597
     28 S           6.3337    1.9118   -3.1394 S.2     1  LIG1       -0.2881
     29 H          -0.4488   -1.1822    3.8199 H       1  LIG1        0.1264
     30 H          -2.4453    2.6405    1.2751 H       1  LIG1        0.1237
     31 H           6.3298   -4.2626    3.2566 H       1  LIG1        0.1283
     32 H          -0.3547   -2.2641    1.5896 H       1  LIG1        0.1259
     33 H           1.2017    0.5706    4.4193 H       1  LIG1        0.1240
     34 H          -0.5276    3.9984    2.0701 H       1  LIG1        0.1215
     35 H          -2.1524    1.0729   -0.6254 H       1  LIG1        0.1217
     36 H           5.6426   -2.1163    4.2956 H       1  LIG1        0.1319
     37 H           6.1676   -4.5595    0.7999 H       1  LIG1        0.1327
     38 H           1.3749   -1.6010   -0.0403 H       1  LIG1        0.1330
     39 H           2.9411    1.2425    2.8039 H       1  LIG1        0.1268
     40 H           1.6777    3.7939    0.9731 H       1  LIG1        0.1340
     41 H           0.0471    0.8599   -1.7310 H       1  LIG1        0.1310
     42 H           4.7965   -0.2714    2.8895 H       1  LIG1        0.1373
     43 H           5.3233   -2.7234   -0.6199 H       1  LIG1        0.1442
     44 H           3.9673    3.4907   -3.5201 H       1  LIG1        0.4093
@<TRIPOS>BOND
     1     1     4   ar
     2     1     5   ar
     3     2     6   ar
     4     2     7   ar
     5     3     8   ar
     6     3     9   ar
     7     4    10   ar
     8     5    11   ar
     9     6    12   ar
    10     7    13   ar
    11     8    14   ar
    12     9    15   ar
    13    10    16   ar
    14    11    16   ar
    15    12    17   ar
    16    13    17   ar
    17    14    19   ar
    18    15    19   ar
    19    16    20    1
    20    17    22    1
    21    18    20   ar
    22    18    21   ar
    23    18    22   ar
    24    19    26    1
    25    20    26   ar
    26    21    23   ar
    27    21    24   ar
    28    22    25   ar
    29    23    27   ar
    30    23    28    2
    31    24    26   ar
    32    25    27   ar
    33     1    29    1
    34     2    30    1
    35     3    31    1
    36     4    32    1
    37     5    33    1
    38     6    34    1
    39     7    35    1
    40     8    36    1
    41     9    37    1
    42    10    38    1
    43    11    39    1
    44    12    40    1
    45    13    41    1
    46    14    42    1
    47    15    43    1
    48    27    44    1
