@<TRIPOS>MOLECULE
AS-938/12583050
 39 42 0 0 0
SMALL
USER_CHARGES

@<TRIPOS>ATOM
      1 C           5.7800   -3.3992    2.6847 C.ar    1  LIG1       -0.0959
      2 C           4.8839   -2.4403    3.1572 C.ar    1  LIG1       -0.0899
      3 C           6.2618   -3.3199    1.3781 C.ar    1  LIG1       -0.0865
      4 C           0.4719    1.1872    0.1070 C.ar    1  LIG1       -0.0704
      5 C           0.4499    3.5400   -0.4413 C.ar    1  LIG1       -0.0778
      6 C          -0.7792    1.3159    0.7101 C.ar    1  LIG1       -0.0932
      7 C          -0.8013    3.6689    0.1617 C.ar    1  LIG1       -0.0980
      8 C           4.4695   -1.4021    2.3228 C.ar    1  LIG1       -0.0562
      9 C           5.8472   -2.2817    0.5438 C.ar    1  LIG1       -0.0500
     10 C           3.3248    0.3402    0.2475 C.ar    1  LIG1        0.0117
     11 C           3.3729    1.2721   -0.7484 C.ar    1  LIG1        0.0255
     12 C           1.0866    2.2992   -0.4686 C.ar    1  LIG1       -0.0233
     13 C          -1.4159    2.5567    0.7373 C.ar    1  LIG1       -0.1142
     14 C           4.6619    1.1529   -1.3840 C.ar    1  LIG1        0.0484
     15 C           4.9511   -1.3229    1.0162 C.ar    1  LIG1       -0.0012
     16 C           2.3693    2.1671   -1.0866 C.ar    1  LIG1        0.0377
     17 C           4.9980    1.9936   -2.4549 C.ar    1  LIG1        0.0405
     18 C          -2.7535    2.6946    1.3823 C.3     1  LIG1       -0.0415
     19 C           6.2765    1.9930   -3.2088 C.3     1  LIG1        0.0148
     20 N           5.3598    0.1756   -0.7803 N.ar    1  LIG1       -0.2977
     21 N           2.7244    2.9675   -2.1269 N.ar    1  LIG1       -0.2758
     22 N           4.0206    2.8793   -2.7990 N.ar    1  LIG1       -0.2744
     23 N           4.5366   -0.2852    0.1832 N.ar    1  LIG1       -0.2725
     24 H           6.1044   -4.2067    3.3345 H       1  LIG1        0.1269
     25 H           4.5098   -2.5011    4.1750 H       1  LIG1        0.1336
     26 H           6.9607   -4.0662    1.0115 H       1  LIG1        0.1332
     27 H           0.9557    0.2133    0.0944 H       1  LIG1        0.1399
     28 H           0.9159    4.4161   -0.8862 H       1  LIG1        0.1247
     29 H          -1.2502    0.4445    1.1571 H       1  LIG1        0.1230
     30 H          -1.2904    4.6393    0.1779 H       1  LIG1        0.1207
     31 H           3.7712   -0.6608    2.7037 H       1  LIG1        0.1330
     32 H           6.2312   -2.2314   -0.4723 H       1  LIG1        0.1462
     33 H           2.5694    0.0687    0.9740 H       1  LIG1        0.2382
     34 H          -2.6415    2.9434    2.4447 H       1  LIG1        0.0586
     35 H          -3.3485    3.4819    0.9014 H       1  LIG1        0.0556
     36 H          -3.3323    1.7652    1.3017 H       1  LIG1        0.0548
     37 H           6.2221    1.3077   -4.0666 H       1  LIG1        0.0851
     38 H           6.5245    2.9959   -3.5875 H       1  LIG1        0.0856
     39 H           7.1207    1.6817   -2.5753 H       1  LIG1        0.0806
@<TRIPOS>BOND
     1     1     2   ar
     2     1     3   ar
     3     2     8   ar
     4     3     9   ar
     5     4     6   ar
     6     4    12   ar
     7     5     7   ar
     8     5    12   ar
     9     6    13   ar
    10     7    13   ar
    11     8    15   ar
    12     9    15   ar
    13    10    11   ar
    14    10    23   ar
    15    11    14   ar
    16    11    16   ar
    17    12    16    1
    18    13    18    1
    19    14    17   ar
    20    14    20   ar
    21    15    23    1
    22    16    21   ar
    23    17    19    1
    24    17    22   ar
    25    20    23   ar
    26    21    22   ar
    27     1    24    1
    28     2    25    1
    29     3    26    1
    30     4    27    1
    31     5    28    1
    32     6    29    1
    33     7    30    1
    34     8    31    1
    35     9    32    1
    36    10    33    1
    37    18    34    1
    38    18    35    1
    39    18    36    1
    40    19    37    1
    41    19    38    1
    42    19    39    1
