@<TRIPOS>MOLECULE
ZINC00384358
 33 35 0 0 0
SMALL
USER_CHARGES

@<TRIPOS>ATOM
      1 C           6.5466   -3.0221    1.2136 C.ar    1  LIG1       -0.0604
      2 C           5.8831   -2.0045    0.5374 C.ar    1  LIG1       -0.0587
      3 C           1.1122    3.1046   -0.3764 C.ar    1  LIG1       -0.0762
      4 C           0.1345    1.0512    0.4388 C.ar    1  LIG1       -0.0814
      5 C          -0.1317    3.7300   -0.2932 C.ar    1  LIG1       -0.0956
      6 C          -1.1096    1.6767    0.5220 C.ar    1  LIG1       -0.0985
      7 C           6.0960   -3.3612    2.4791 C.ar    1  LIG1       -0.0360
      8 C           4.4314   -1.7793    2.4078 C.ar    1  LIG1       -0.0027
      9 C           3.4780    1.4854   -1.0253 C.ar    1  LIG1       -0.0045
     10 C           1.2454    1.7652   -0.0104 C.ar    1  LIG1       -0.0487
     11 C           4.8043   -1.3659    1.1388 C.ar    1  LIG1        0.0143
     12 C          -1.2427    3.0161    0.1560 C.ar    1  LIG1       -0.1147
     13 C           2.5265    1.1220   -0.0955 C.ar    1  LIG1       -0.0280
     14 C           4.0950   -0.3058    0.4625 C.ar    1  LIG1        0.0431
     15 C          -2.5174    5.1461   -0.1964 C.3     1  LIG1       -0.0635
     16 C          -2.5719    3.6861    0.2457 C.3     1  LIG1       -0.0493
     17 N           5.0517   -2.7639    3.0959 N.ar    1  LIG1       -0.3895
     18 N           2.8784    0.0947    0.7582 N.ar    1  LIG1       -0.3835
     19 S           4.8747    0.5093   -0.8309 S.2     1  LIG1       -0.0857
     20 H           7.3900   -3.5338    0.7643 H       1  LIG1        0.1335
     21 H           6.2179   -1.7201   -0.4571 H       1  LIG1        0.1478
     22 H           1.9683    3.6750   -0.7292 H       1  LIG1        0.1358
     23 H           0.2220    0.0065    0.7279 H       1  LIG1        0.1244
     24 H          -0.2265    4.7741   -0.5795 H       1  LIG1        0.1192
     25 H          -1.9702    1.1134    0.8731 H       1  LIG1        0.1192
     26 H           6.5794   -4.1483    3.0483 H       1  LIG1        0.2079
     27 H           3.5975   -1.3214    2.9322 H       1  LIG1        0.2254
     28 H           3.4307    2.2520   -1.7866 H       1  LIG1        0.1815
     29 H          -1.7877    5.7089    0.3956 H       1  LIG1        0.0338
     30 H          -3.4942    5.6248   -0.0746 H       1  LIG1        0.0362
     31 H          -2.2291    5.2270   -1.2500 H       1  LIG1        0.0340
     32 H          -3.3139    3.1515   -0.3691 H       1  LIG1        0.0603
     33 H          -2.9583    3.6365    1.2765 H       1  LIG1        0.0605
@<TRIPOS>BOND
     1     1     2   ar
     2     1     7   ar
     3     2    11   ar
     4     3     5   ar
     5     3    10   ar
     6     4     6   ar
     7     4    10   ar
     8     5    12   ar
     9     6    12   ar
    10     7    17   ar
    11     8    11   ar
    12     8    17   ar
    13     9    13   ar
    14     9    19   ar
    15    10    13    1
    16    11    14    1
    17    12    16    1
    18    13    18   ar
    19    14    18   ar
    20    14    19   ar
    21    15    16    1
    22     1    20    1
    23     2    21    1
    24     3    22    1
    25     4    23    1
    26     5    24    1
    27     6    25    1
    28     7    26    1
    29     8    27    1
    30     9    28    1
    31    15    29    1
    32    15    30    1
    33    15    31    1
    34    16    32    1
    35    16    33    1
