@<TRIPOS>MOLECULE
AO-476/43249991
 44 48 0 0 0
SMALL
USER_CHARGES

@<TRIPOS>ATOM
      1 C           0.3953   -0.7424    3.2662 C.ar    1  LIG1       -0.0981
      2 C          -1.5198    2.5684    0.7695 C.ar    1  LIG1       -0.1012
      3 C           0.9066    0.5546    3.2215 C.ar    1  LIG1       -0.0918
      4 C           0.8344   -1.6972    2.3490 C.ar    1  LIG1       -0.0960
      5 C          -1.1492    1.3749    0.1499 C.ar    1  LIG1       -0.0960
      6 C          -0.6393    3.6502    0.7825 C.ar    1  LIG1       -0.0948
      7 C           1.8571    0.8967    2.2596 C.ar    1  LIG1       -0.0744
      8 C           1.7848   -1.3550    1.3871 C.ar    1  LIG1       -0.0798
      9 C           0.1019    1.2632   -0.4567 C.ar    1  LIG1       -0.0719
     10 C           0.6119    3.5385    0.1760 C.ar    1  LIG1       -0.0714
     11 C           5.1290   -1.1755    2.4036 C.ar    1  LIG1       -0.0353
     12 C           5.3335   -2.5758    0.4455 C.ar    1  LIG1       -0.0375
     13 C           5.6152   -2.2144    3.1974 C.ar    1  LIG1       -0.0282
     14 C           5.8198   -3.6147    1.2392 C.ar    1  LIG1       -0.0293
     15 C           2.2961   -0.0580    1.3424 C.ar    1  LIG1       -0.0359
     16 C           0.9825    2.3450   -0.4436 C.ar    1  LIG1       -0.0150
     17 C           3.2560    1.2390   -0.6500 C.ar    1  LIG1        0.0561
     18 C           4.9881   -1.3563    1.0277 C.ar    1  LIG1        0.0171
     19 C           5.9606   -3.4339    2.6151 C.ar    1  LIG1        0.0749
     20 C           3.2823    0.2967    0.3456 C.ar    1  LIG1        0.0289
     21 C           4.5037    1.1313   -1.2788 C.ar    1  LIG1        0.1376
     22 C           2.3062    2.2268   -1.0852 C.ar    1  LIG1        0.0482
     23 C           4.8612    2.0057   -2.3623 C.ar    1  LIG1        0.1828
     24 N           5.2745    0.1773   -0.7550 N.ar    1  LIG1       -0.2618
     25 N           2.6328    3.0365   -2.0536 N.ar    1  LIG1       -0.2981
     26 N           4.5014   -0.3159    0.2332 N.ar    1  LIG1       -0.2501
     27 N           3.8627    2.9271   -2.6675 N.ar    1  LIG1       -0.2277
     28 O           5.9382    1.9434   -2.9466 O.2     1  LIG1       -0.4459
     29 F           6.4275   -4.4315    3.3773 F       1  LIG1       -0.2599
     30 H          -0.3443   -1.0090    4.0157 H       1  LIG1        0.1244
     31 H          -2.4939    2.6553    1.2418 H       1  LIG1        0.1206
     32 H           0.5645    1.2980    3.9356 H       1  LIG1        0.1250
     33 H           0.4370   -2.7074    2.3846 H       1  LIG1        0.1224
     34 H          -1.8348    0.5327    0.1400 H       1  LIG1        0.1196
     35 H          -0.9280    4.5795    1.2648 H       1  LIG1        0.1196
     36 H           2.2479    1.9113    2.2394 H       1  LIG1        0.1325
     37 H           2.1160   -2.1104    0.6786 H       1  LIG1        0.1244
     38 H           0.3805    0.3286   -0.9366 H       1  LIG1        0.1328
     39 H           1.2899    4.3878    0.1925 H       1  LIG1        0.1292
     40 H           4.8630   -0.2304    2.8710 H       1  LIG1        0.1596
     41 H           5.2297   -2.7298   -0.6259 H       1  LIG1        0.1546
     42 H           5.7242   -2.0744    4.2687 H       1  LIG1        0.1474
     43 H           6.0896   -4.5642    0.7864 H       1  LIG1        0.1474
     44 H           4.0598    3.5837   -3.4165 H       1  LIG1        0.3947
@<TRIPOS>BOND
     1     1     3   ar
     2     1     4   ar
     3     2     5   ar
     4     2     6   ar
     5     3     7   ar
     6     4     8   ar
     7     5     9   ar
     8     6    10   ar
     9     7    15   ar
    10     8    15   ar
    11     9    16   ar
    12    10    16   ar
    13    11    13   ar
    14    11    18   ar
    15    12    14   ar
    16    12    18   ar
    17    13    19   ar
    18    14    19   ar
    19    15    20    1
    20    16    22    1
    21    17    20   ar
    22    17    21   ar
    23    17    22   ar
    24    18    26    1
    25    19    29    1
    26    20    26   ar
    27    21    23   ar
    28    21    24   ar
    29    22    25   ar
    30    23    27   ar
    31    23    28    2
    32    24    26   ar
    33    25    27   ar
    34     1    30    1
    35     2    31    1
    36     3    32    1
    37     4    33    1
    38     5    34    1
    39     6    35    1
    40     7    36    1
    41     8    37    1
    42     9    38    1
    43    10    39    1
    44    11    40    1
    45    12    41    1
    46    13    42    1
    47    14    43    1
    48    27    44    1
