@<TRIPOS>MOLECULE
AE-641/14883017
 38 40 0 0 0
SMALL
USER_CHARGES

@<TRIPOS>ATOM
      1 C           6.1368   -3.3965    2.4712 C.ar    1  LIG1       -0.1053
      2 C          -1.0950    2.9718    0.1142 C.ar    1  LIG1       -0.0959
      3 C           5.8961   -3.5091    1.1020 C.ar    1  LIG1       -0.0998
      4 C           5.7215   -2.2574    3.1610 C.ar    1  LIG1       -0.0992
      5 C           0.0771    3.7071    0.2905 C.ar    1  LIG1       -0.0874
      6 C          -1.0277    1.6001   -0.1303 C.ar    1  LIG1       -0.0848
      7 C           5.2403   -2.4826    0.4224 C.ar    1  LIG1       -0.0780
      8 C           5.0659   -1.2308    2.4814 C.ar    1  LIG1       -0.0772
      9 C           1.3165    3.0708    0.2223 C.ar    1  LIG1       -0.0494
     10 C           0.2117    0.9638   -0.1985 C.ar    1  LIG1       -0.0468
     11 C           4.8252   -1.3434    1.1121 C.ar    1  LIG1       -0.0376
     12 C           4.6464    0.4721   -0.6646 C.ar    1  LIG1       -0.0184
     13 C           1.3838    1.6991   -0.0223 C.ar    1  LIG1        0.0098
     14 C           4.1502   -0.2863    0.4126 C.ar    1  LIG1        0.0220
     15 C           3.6284    1.3425   -0.9694 C.ar    1  LIG1        0.1165
     16 C           3.5889    2.3473   -1.9875 C.2     1  LIG1        0.2147
     17 C           5.9616    0.3624   -1.3232 C.3     1  LIG1       -0.0221
     18 C           4.3980    2.9464   -4.1714 C.3     1  LIG1        0.0394
     19 N           2.9133    0.0709    0.7682 N.ar    1  LIG1       -0.2917
     20 N           2.6237    1.0635   -0.0903 N.ar    1  LIG1       -0.2524
     21 O           2.9429    3.4173   -1.9234 O.2     1  LIG1       -0.4280
     22 O           4.3554    2.0175   -3.0829 O.3     1  LIG1       -0.3438
     23 H           6.6463   -4.1961    3.0008 H       1  LIG1        0.1174
     24 H          -2.0602    3.4663    0.1690 H       1  LIG1        0.1269
     25 H           6.2181   -4.3965    0.5649 H       1  LIG1        0.1193
     26 H           5.9079   -2.1705    4.2273 H       1  LIG1        0.1183
     27 H           0.0249    4.7748    0.4822 H       1  LIG1        0.1289
     28 H          -1.9410    1.0279   -0.2661 H       1  LIG1        0.1298
     29 H           5.0602   -2.5852   -0.6452 H       1  LIG1        0.1283
     30 H           4.7485   -0.3492    3.0335 H       1  LIG1        0.1284
     31 H           2.2225    3.6555    0.3623 H       1  LIG1        0.1411
     32 H           0.2497   -0.1060   -0.3891 H       1  LIG1        0.1412
     33 H           5.9285   -0.3523   -2.1623 H       1  LIG1        0.0684
     34 H           6.3077    1.3313   -1.7229 H       1  LIG1        0.0683
     35 H           6.7476    0.0233   -0.6261 H       1  LIG1        0.0751
     36 H           5.0407    2.5526   -4.9625 H       1  LIG1        0.0988
     37 H           4.7836    3.9060   -3.8177 H       1  LIG1        0.1267
     38 H           3.3866    3.0839   -4.5612 H       1  LIG1        0.0985
@<TRIPOS>BOND
     1     1     3   ar
     2     1     4   ar
     3     2     5   ar
     4     2     6   ar
     5     3     7   ar
     6     4     8   ar
     7     5     9   ar
     8     6    10   ar
     9     7    11   ar
    10     8    11   ar
    11     9    13   ar
    12    10    13   ar
    13    11    14    1
    14    12    14   ar
    15    12    15   ar
    16    12    17    1
    17    13    20    1
    18    14    19   ar
    19    15    16    1
    20    15    20   ar
    21    16    21    2
    22    16    22    1
    23    18    22    1
    24    19    20   ar
    25     1    23    1
    26     2    24    1
    27     3    25    1
    28     4    26    1
    29     5    27    1
    30     6    28    1
    31     7    29    1
    32     8    30    1
    33     9    31    1
    34    10    32    1
    35    17    33    1
    36    17    34    1
    37    17    35    1
    38    18    36    1
    39    18    37    1
    40    18    38    1
