@<TRIPOS>MOLECULE
AF-826/30392059
 38 40 0 0 0
SMALL
USER_CHARGES

@<TRIPOS>ATOM
      1 C           0.2073    1.2803   -0.7772 C.ar    1  LIG1       -0.0633
      2 C           1.1211    2.8892    0.7764 C.ar    1  LIG1       -0.0598
      3 C          -1.0012    1.9766   -0.7874 C.ar    1  LIG1       -0.0637
      4 C          -0.0875    3.5855    0.7661 C.ar    1  LIG1       -0.0607
      5 C           3.5562    1.2886   -0.8770 C.ar    1  LIG1        0.0515
      6 C           1.2685    1.7365    0.0049 C.ar    1  LIG1       -0.0119
      7 C           3.7068    2.2312   -1.9423 C.ar    1  LIG1       -0.0266
      8 C          -1.1487    3.1292   -0.0159 C.ar    1  LIG1       -0.0086
      9 C           2.5143    1.0183    0.0159 C.ar    1  LIG1        0.0274
     10 C           4.9330    2.1340   -2.5634 C.ar    1  LIG1        0.1368
     11 C           4.6977    0.5091   -0.7415 C.ar    1  LIG1        0.0742
     12 C           3.8132   -0.6315    0.9596 C.ar    1  LIG1        0.0925
     13 C           5.4602    2.8887   -3.6564 C.2     1  LIG1        0.1906
     14 C           3.8709    5.6211   -5.5602 C.3     1  LIG1       -0.0330
     15 C           5.6161   -2.5015    1.8348 C.3     1  LIG1        0.0304
     16 C           4.9876    4.6583   -5.2172 C.3     1  LIG1        0.0279
     17 N           2.6487    0.0461    0.9432 N.ar    1  LIG1       -0.3246
     18 N           4.8854   -0.4714    0.1634 N.ar    1  LIG1       -0.3307
     19 N           2.7620    3.1292   -2.3171 N.pl3   1  LIG1       -0.3939
     20 O           6.5948    2.7345   -4.1644 O.2     1  LIG1       -0.4516
     21 O           4.5744    3.8367   -4.1199 O.3     1  LIG1       -0.3476
     22 S           5.9090    0.9120   -1.8705 S.2     1  LIG1       -0.0089
     23 S           3.9504   -1.9080    2.2002 S.3     1  LIG1       -0.0621
     24 CL         -2.6406    3.9869   -0.0279 Cl      1  LIG1       -0.1323
     25 H           0.3068    0.3834   -1.3838 H       1  LIG1        0.1457
     26 H           1.9388    3.2570    1.3920 H       1  LIG1        0.1495
     27 H          -1.8207    1.6089   -1.4000 H       1  LIG1        0.1393
     28 H          -0.1887    4.4815    1.3733 H       1  LIG1        0.1408
     29 H           2.9654    5.0811   -5.8503 H       1  LIG1        0.0490
     30 H           3.6400    6.2649   -4.7050 H       1  LIG1        0.0489
     31 H           4.1684    6.2796   -6.3831 H       1  LIG1        0.0586
     32 H           5.8802   -3.3120    2.5184 H       1  LIG1        0.0829
     33 H           6.3346   -1.6867    1.9535 H       1  LIG1        0.0830
     34 H           5.6612   -2.8712    0.8076 H       1  LIG1        0.0996
     35 H           5.8903    5.2048   -4.9280 H       1  LIG1        0.1013
     36 H           5.2164    4.0153   -6.0723 H       1  LIG1        0.1013
     37 H           1.8349    3.1569   -1.8749 H       1  LIG1        0.2787
     38 H           2.8980    3.7555   -3.1202 H       1  LIG1        0.2694
@<TRIPOS>BOND
     1     1     3   ar
     2     1     6   ar
     3     2     4   ar
     4     2     6   ar
     5     3     8   ar
     6     4     8   ar
     7     5     7   ar
     8     5     9   ar
     9     5    11   ar
    10     6     9    1
    11     7    10   ar
    12     7    19    1
    13     8    24    1
    14     9    17   ar
    15    10    13    1
    16    10    22   ar
    17    11    18   ar
    18    11    22   ar
    19    12    17   ar
    20    12    18   ar
    21    12    23    1
    22    13    20    2
    23    13    21    1
    24    14    16    1
    25    15    23    1
    26    16    21    1
    27     1    25    1
    28     2    26    1
    29     3    27    1
    30     4    28    1
    31    14    29    1
    32    14    30    1
    33    14    31    1
    34    15    32    1
    35    15    33    1
    36    15    34    1
    37    16    35    1
    38    16    36    1
    39    19    37    1
    40    19    38    1
