@<TRIPOS>MOLECULE
AN-919/15183003
 35 37 0 0 0
SMALL
USER_CHARGES

@<TRIPOS>ATOM
      1 C           3.1232    2.9614   -2.3505 C.1     1  LIG1        0.0741
      2 C           6.0103   -3.2982    2.4439 C.ar    1  LIG1       -0.1106
      3 C           5.0933   -2.4010    2.9912 C.ar    1  LIG1       -0.1010
      4 C           6.4185   -3.1564    1.1177 C.ar    1  LIG1       -0.1057
      5 C           4.5841   -1.3620    2.2121 C.ar    1  LIG1       -0.0732
      6 C           5.9093   -2.1174    0.3386 C.ar    1  LIG1       -0.0809
      7 C           1.2415    2.9867    0.6056 C.ar    1  LIG1       -0.0708
      8 C           0.3297    1.3771   -0.9482 C.ar    1  LIG1       -0.0704
      9 C          -0.0372    3.4985    0.8259 C.ar    1  LIG1       -0.0722
     10 C          -0.9491    1.8887   -0.7280 C.ar    1  LIG1       -0.0711
     11 C           3.1939    0.3588    0.3042 C.ar    1  LIG1       -0.0393
     12 C           3.5818    1.8899   -1.5096 C.ar    1  LIG1        0.1085
     13 C           1.4250    1.9260   -0.2814 C.ar    1  LIG1       -0.0503
     14 C           4.9922   -1.2202    0.8858 C.ar    1  LIG1       -0.0332
     15 C           2.7514    1.3954   -0.5100 C.ar    1  LIG1       -0.0145
     16 C          -1.1326    2.9496    0.1591 C.ar    1  LIG1        0.0245
     17 C           4.4652   -0.1445    0.0799 C.ar    1  LIG1       -0.0097
     18 C           4.8358    1.3182   -1.6526 C.ar    1  LIG1       -0.0602
     19 C          -2.4997    3.4968    0.3944 C.3     1  LIG1        0.3443
     20 N           2.7528    3.8267   -3.0294 N.1     1  LIG1       -0.3874
     21 N           5.3006    0.3099   -0.8810 N.ar    1  LIG1       -0.3654
     22 F          -2.5294    4.5318    1.2855 F       1  LIG1       -0.1928
     23 F          -3.0962    3.9822   -0.7346 F       1  LIG1       -0.1925
     24 F          -3.3615    2.5619    0.8907 F       1  LIG1       -0.1929
     25 S           6.0148    1.8765   -2.9225 S.3     1  LIG1       -0.5375
     26 H           6.4079   -4.1061    3.0512 H       1  LIG1        0.1108
     27 H           4.7767   -2.5103    4.0243 H       1  LIG1        0.1135
     28 H           7.1336   -3.8538    0.6913 H       1  LIG1        0.1115
     29 H           3.8701   -0.6705    2.6533 H       1  LIG1        0.1422
     30 H           6.2372   -2.0191   -0.6935 H       1  LIG1        0.1260
     31 H           2.0854    3.4260    1.1324 H       1  LIG1        0.1400
     32 H           0.4564    0.5495   -1.6423 H       1  LIG1        0.1367
     33 H          -0.1707    4.3258    1.5178 H       1  LIG1        0.1384
     34 H          -1.7970    1.4546   -1.2513 H       1  LIG1        0.1391
     35 H           2.5645   -0.0452    1.0925 H       1  LIG1        0.1219
@<TRIPOS>BOND
     1     1    12    1
     2     1    20    3
     3     2     3   ar
     4     2     4   ar
     5     3     5   ar
     6     4     6   ar
     7     5    14   ar
     8     6    14   ar
     9     7     9   ar
    10     7    13   ar
    11     8    10   ar
    12     8    13   ar
    13     9    16   ar
    14    10    16   ar
    15    11    15   ar
    16    11    17   ar
    17    12    15   ar
    18    12    18   ar
    19    13    15    1
    20    14    17    1
    21    16    19    1
    22    17    21   ar
    23    18    21   ar
    24    18    25    1
    25    19    22    1
    26    19    23    1
    27    19    24    1
    28     2    26    1
    29     3    27    1
    30     4    28    1
    31     5    29    1
    32     6    30    1
    33     7    31    1
    34     8    32    1
    35     9    33    1
    36    10    34    1
    37    11    35    1
