@<TRIPOS>MOLECULE
AJ-916/40989362
 36 39 0 0 0
SMALL
USER_CHARGES

@<TRIPOS>ATOM
      1 C          -1.0477    1.3480    0.1457 C.ar    1  LIG1       -0.0856
      2 C           0.2036    1.2194   -0.4570 C.ar    1  LIG1       -0.0688
      3 C           4.0991   -1.7995    2.0127 C.ar    1  LIG1       -0.0429
      4 C           6.2175   -1.8844    0.8541 C.ar    1  LIG1       -0.0366
      5 C          -1.4162    2.5565    0.7367 C.ar    1  LIG1       -0.0768
      6 C           4.5137   -2.8377    2.8468 C.ar    1  LIG1       -0.0651
      7 C           6.6321   -2.9225    1.6883 C.ar    1  LIG1       -0.0616
      8 C           0.7180    3.5079    0.1224 C.ar    1  LIG1       -0.0470
      9 C           3.3248    0.3402    0.2475 C.ar    1  LIG1        0.0132
     10 C           3.3729    1.2721   -0.7483 C.ar    1  LIG1        0.0276
     11 C           1.0865    2.2992   -0.4687 C.ar    1  LIG1       -0.0125
     12 C           4.6619    1.1528   -1.3839 C.ar    1  LIG1        0.0516
     13 C           4.9510   -1.3229    1.0163 C.ar    1  LIG1        0.0081
     14 C           5.7803   -3.3992    2.6847 C.ar    1  LIG1       -0.0299
     15 C          -0.5334    3.6364    0.7251 C.ar    1  LIG1       -0.0289
     16 C           2.3693    2.1672   -1.0866 C.ar    1  LIG1        0.0426
     17 C           4.9980    1.9936   -2.4548 C.ar    1  LIG1        0.0434
     18 C           6.2766    1.9929   -3.2087 C.3     1  LIG1        0.0164
     19 N           5.3597    0.1756   -0.7802 N.ar    1  LIG1       -0.2949
     20 N           2.7244    2.9675   -2.1269 N.ar    1  LIG1       -0.2722
     21 N           4.0207    2.8793   -2.7990 N.ar    1  LIG1       -0.2712
     22 N           4.5365   -0.2852    0.1832 N.ar    1  LIG1       -0.2689
     23 BR          6.3423   -4.8052    3.8158 Br      1  LIG1       -0.0995
     24 BR         -1.0327    5.2734    1.5276 Br      1  LIG1       -0.1048
     25 H          -1.7351    0.5073    0.1549 H       1  LIG1        0.1331
     26 H           0.4756    0.2714   -0.9148 H       1  LIG1        0.1339
     27 H           3.1091   -1.3714    2.1499 H       1  LIG1        0.1445
     28 H           6.8913   -1.5223    0.0814 H       1  LIG1        0.1577
     29 H          -2.3952    2.6402    1.2021 H       1  LIG1        0.1407
     30 H           3.8382   -3.1977    3.6186 H       1  LIG1        0.1517
     31 H           7.6223   -3.3492    1.5488 H       1  LIG1        0.1514
     32 H           1.4076    4.3499    0.1128 H       1  LIG1        0.1563
     33 H           2.5693    0.0687    0.9740 H       1  LIG1        0.2401
     34 H           6.2222    1.3076   -4.0665 H       1  LIG1        0.0865
     35 H           6.5246    2.9959   -3.5874 H       1  LIG1        0.0817
     36 H           7.1208    1.6817   -2.5751 H       1  LIG1        0.0868
@<TRIPOS>BOND
     1     1     2   ar
     2     1     5   ar
     3     2    11   ar
     4     3     6   ar
     5     3    13   ar
     6     4     7   ar
     7     4    13   ar
     8     5    15   ar
     9     6    14   ar
    10     7    14   ar
    11     8    11   ar
    12     8    15   ar
    13     9    10   ar
    14     9    22   ar
    15    10    12   ar
    16    10    16   ar
    17    11    16    1
    18    12    17   ar
    19    12    19   ar
    20    13    22    1
    21    14    23    1
    22    15    24    1
    23    16    20   ar
    24    17    18    1
    25    17    21   ar
    26    19    22   ar
    27    20    21   ar
    28     1    25    1
    29     2    26    1
    30     3    27    1
    31     4    28    1
    32     5    29    1
    33     6    30    1
    34     7    31    1
    35     8    32    1
    36     9    33    1
    37    18    34    1
    38    18    35    1
    39    18    36    1
