@<TRIPOS>MOLECULE
AG-690/11480698
 26 28 0 0 0
SMALL
USER_CHARGES

@<TRIPOS>ATOM
      1 C           1.0979    2.9499    0.7271 C.ar    1  LIG1       -0.0786
      2 C           0.1840    1.3411   -0.8265 C.ar    1  LIG1       -0.0697
      3 C          -0.1267    3.6170    0.7566 C.ar    1  LIG1       -0.0721
      4 C          -1.0406    2.0082   -0.7970 C.ar    1  LIG1       -0.0646
      5 C           2.7680    0.1109    0.8052 C.ar    1  LIG1        0.0008
      6 C           1.2533    1.8120   -0.0646 C.ar    1  LIG1       -0.0641
      7 C           2.5175    1.1230   -0.0950 C.ar    1  LIG1       -0.0442
      8 C           3.6196    1.3371   -0.9701 C.ar    1  LIG1        0.0613
      9 C          -1.1959    3.1462   -0.0054 C.ar    1  LIG1       -0.0170
     10 C           4.6763    0.4801   -0.7084 C.ar    1  LIG1        0.0588
     11 C           5.9771    1.2948   -2.3218 C.ar    1  LIG1        0.0444
     12 C           3.7478    2.3070   -2.0501 C.ar    1  LIG1        0.1258
     13 N           5.8720    0.4272   -1.3611 N.ar    1  LIG1       -0.3382
     14 N           4.9931    2.2074   -2.6842 N.ar    1  LIG1       -0.4090
     15 N           5.2745    3.0685   -3.7373 N.pl3   1  LIG1        0.3951
     16 O           2.8595    3.1006   -2.3449 O.2     1  LIG1       -0.4529
     17 S           4.3231   -0.5723    0.5922 S.2     1  LIG1       -0.0485
     18 CL         -2.7069    3.9693    0.0294 Cl      1  LIG1       -0.1464
     19 H           1.9213    3.3302    1.3273 H       1  LIG1        0.1333
     20 H           0.2895    0.4555   -1.4487 H       1  LIG1        0.1408
     21 H          -0.2334    4.5025    1.3779 H       1  LIG1        0.1304
     22 H          -1.8645    1.6306   -1.3970 H       1  LIG1        0.1325
     23 H           2.1191   -0.2694    1.5828 H       1  LIG1        0.1854
     24 H           6.8977    1.3515   -2.9251 H       1  LIG1        0.3246
     25 H           6.2781    3.2983   -3.7646 H       1  LIG1        0.0367
     26 H           4.8052    3.9749   -3.6016 H       1  LIG1        0.0354
@<TRIPOS>BOND
     1     1     3   ar
     2     1     6   ar
     3     2     4   ar
     4     2     6   ar
     5     3     9   ar
     6     4     9   ar
     7     5     7   ar
     8     5    17   ar
     9     6     7    1
    10     7     8   ar
    11     8    10   ar
    12     8    12   ar
    13     9    18    1
    14    10    13   ar
    15    10    17   ar
    16    11    13   ar
    17    11    14   ar
    18    12    14   ar
    19    12    16    2
    20    14    15    1
    21     1    19    1
    22     2    20    1
    23     3    21    1
    24     4    22    1
    25     5    23    1
    26    11    24    1
    27    15    25    1
    28    15    26    1
