@<TRIPOS>MOLECULE
AH-262/11508001
 35 38 0 0 0
SMALL
USER_CHARGES

@<TRIPOS>ATOM
      1 C          -1.1632    3.0062    0.1181 C.ar    1  LIG1       -0.1036
      2 C           6.0987   -3.3318    2.4259 C.ar    1  LIG1       -0.0944
      3 C          -0.0486    3.7141   -0.3316 C.ar    1  LIG1       -0.0988
      4 C          -1.0355    1.6684    0.4918 C.ar    1  LIG1       -0.0954
      5 C           5.8621   -3.4464    1.0560 C.ar    1  LIG1       -0.0846
      6 C           5.6861   -2.1893    3.1117 C.ar    1  LIG1       -0.0864
      7 C           1.1936    3.0843   -0.4077 C.ar    1  LIG1       -0.0761
      8 C           0.2067    1.0386    0.4157 C.ar    1  LIG1       -0.0716
      9 C           5.2132   -2.4186    0.3719 C.ar    1  LIG1       -0.0477
     10 C           5.0371   -1.1615    2.4275 C.ar    1  LIG1       -0.0498
     11 C           1.3212    1.7464   -0.0340 C.ar    1  LIG1       -0.0281
     12 C           3.6503    1.3687   -1.0117 C.ar    1  LIG1        0.0773
     13 C           4.8006   -1.2761    1.0576 C.ar    1  LIG1        0.0109
     14 C           2.6039    1.0955   -0.1127 C.ar    1  LIG1        0.0406
     15 C           4.6410    0.4785   -0.6701 C.ar    1  LIG1        0.1013
     16 C           5.1262    2.2350   -2.7788 C.2     1  LIG1        0.0282
     17 C           6.0937    1.3651   -2.4446 C.2     1  LIG1        0.0341
     18 C           3.8020    2.3171   -2.0856 C.2     1  LIG1        0.1224
     19 C           5.9131    0.3899   -1.3262 C.2     1  LIG1        0.1459
     20 N           2.9049    0.1069    0.7369 N.ar    1  LIG1       -0.2818
     21 N           4.1517   -0.2490    0.3730 N.ar    1  LIG1       -0.2529
     22 O           2.9476    3.1262   -2.4233 O.2     1  LIG1       -0.4287
     23 O           6.8143   -0.3928   -1.0438 O.2     1  LIG1       -0.4222
     24 H          -2.1302    3.4968    0.1784 H       1  LIG1        0.1198
     25 H           6.6023   -4.1324    2.9593 H       1  LIG1        0.1298
     26 H          -0.1475    4.7561   -0.6215 H       1  LIG1        0.1179
     27 H          -1.9032    1.1179    0.8431 H       1  LIG1        0.1203
     28 H           6.1820   -4.3365    0.5221 H       1  LIG1        0.1327
     29 H           5.8694   -2.1014    4.1786 H       1  LIG1        0.1310
     30 H           2.0531    3.6496   -0.7604 H       1  LIG1        0.1296
     31 H           0.2896   -0.0050    0.7108 H       1  LIG1        0.1374
     32 H           5.0342   -2.5210   -0.6958 H       1  LIG1        0.1481
     33 H           4.7202   -0.2768    2.9744 H       1  LIG1        0.1444
     34 H           5.2832    2.9327   -3.5955 H       1  LIG1        0.1756
     35 H           7.0371    1.3454   -2.9788 H       1  LIG1        0.1750
@<TRIPOS>BOND
     1     1     3   ar
     2     1     4   ar
     3     2     5   ar
     4     2     6   ar
     5     3     7   ar
     6     4     8   ar
     7     5     9   ar
     8     6    10   ar
     9     7    11   ar
    10     8    11   ar
    11     9    13   ar
    12    10    13   ar
    13    11    14    1
    14    12    14   ar
    15    12    15   ar
    16    12    18    1
    17    13    21    1
    18    14    20   ar
    19    15    19    1
    20    15    21   ar
    21    16    17    2
    22    16    18    1
    23    17    19    1
    24    18    22    2
    25    19    23    2
    26    20    21   ar
    27     1    24    1
    28     2    25    1
    29     3    26    1
    30     4    27    1
    31     5    28    1
    32     6    29    1
    33     7    30    1
    34     8    31    1
    35     9    32    1
    36    10    33    1
    37    16    34    1
    38    17    35    1
