@<TRIPOS>MOLECULE
AO-476/43201369
 43 47 0 0 0
SMALL
USER_CHARGES

@<TRIPOS>ATOM
      1 C          -1.3938    2.6945    0.7588 C.ar    1  LIG1       -0.1008
      2 C           0.3772   -0.6090    3.1442 C.ar    1  LIG1       -0.0961
      3 C           5.8514   -3.3994    2.6478 C.ar    1  LIG1       -0.0940
      4 C          -1.0583    1.4684    0.1847 C.ar    1  LIG1       -0.0952
      5 C          -0.4845    3.7518    0.7269 C.ar    1  LIG1       -0.0954
      6 C           0.9184    0.6759    3.1021 C.ar    1  LIG1       -0.0901
      7 C           0.8067   -1.5768    2.2361 C.ar    1  LIG1       -0.0940
      8 C           5.5275   -2.1601    3.2001 C.ar    1  LIG1       -0.0867
      9 C           5.7348   -3.6022    1.2727 C.ar    1  LIG1       -0.0851
     10 C           0.1867    1.2994   -0.4212 C.ar    1  LIG1       -0.0726
     11 C           0.7604    3.5829    0.1209 C.ar    1  LIG1       -0.0742
     12 C           1.8890    0.9930    2.1519 C.ar    1  LIG1       -0.0722
     13 C           1.7773   -1.2597    1.2859 C.ar    1  LIG1       -0.0771
     14 C           5.0868   -1.1237    2.3771 C.ar    1  LIG1       -0.0524
     15 C           5.2941   -2.5657    0.4498 C.ar    1  LIG1       -0.0495
     16 C           3.3701    1.2774   -0.7462 C.ar    1  LIG1        0.0521
     17 C           1.0961    2.3566   -0.4531 C.ar    1  LIG1       -0.0186
     18 C           2.3185    0.0253    1.2437 C.ar    1  LIG1       -0.0267
     19 C           4.6464    1.1360   -1.4025 C.ar    1  LIG1        0.0859
     20 C           4.9702   -1.3264    1.0019 C.ar    1  LIG1        0.0060
     21 C           2.3727    2.1831   -1.0748 C.ar    1  LIG1        0.0517
     22 C           3.3267    0.3543    0.2580 C.ar    1  LIG1        0.0354
     23 C           4.9752    1.9636   -2.4858 C.ar    1  LIG1        0.1576
     24 N           5.3415    0.1544   -0.8027 N.ar    1  LIG1       -0.2826
     25 N           2.7205    2.9702   -2.1275 N.ar    1  LIG1       -0.2587
     26 N           4.0039    2.8595   -2.8207 N.ar    1  LIG1       -0.2327
     27 N           4.5288   -0.2876    0.1783 N.ar    1  LIG1       -0.2547
     28 CL          6.4393    1.8670   -3.3008 Cl      1  LIG1       -0.0202
     29 H          -2.3639    2.8263    1.2290 H       1  LIG1        0.1218
     30 H          -0.3782   -0.8561    3.8846 H       1  LIG1        0.1270
     31 H           6.1963   -4.2060    3.2879 H       1  LIG1        0.1299
     32 H          -1.7668    0.6457    0.2079 H       1  LIG1        0.1206
     33 H          -0.7457    4.7072    1.1724 H       1  LIG1        0.1193
     34 H           0.5837    1.4293    3.8092 H       1  LIG1        0.1266
     35 H           0.3860   -2.5777    2.2696 H       1  LIG1        0.1243
     36 H           5.6195   -2.0015    4.2706 H       1  LIG1        0.1329
     37 H           5.9886   -4.5671    0.8434 H       1  LIG1        0.1330
     38 H           0.4334    0.3375   -0.8645 H       1  LIG1        0.1348
     39 H           1.4588    4.4162    0.1033 H       1  LIG1        0.1271
     40 H           2.3030    1.9983    2.1336 H       1  LIG1        0.1334
     41 H           2.1008   -2.0249    0.5843 H       1  LIG1        0.1263
     42 H           4.8384   -0.1623    2.8203 H       1  LIG1        0.1387
     43 H           5.2086   -2.7372   -0.6205 H       1  LIG1        0.1450
@<TRIPOS>BOND
     1     1     4   ar
     2     1     5   ar
     3     2     6   ar
     4     2     7   ar
     5     3     8   ar
     6     3     9   ar
     7     4    10   ar
     8     5    11   ar
     9     6    12   ar
    10     7    13   ar
    11     8    14   ar
    12     9    15   ar
    13    10    17   ar
    14    11    17   ar
    15    12    18   ar
    16    13    18   ar
    17    14    20   ar
    18    15    20   ar
    19    16    19   ar
    20    16    21   ar
    21    16    22   ar
    22    17    21    1
    23    18    22    1
    24    19    23   ar
    25    19    24   ar
    26    20    27    1
    27    21    25   ar
    28    22    27   ar
    29    23    26   ar
    30    23    28    1
    31    24    27   ar
    32    25    26   ar
    33     1    29    1
    34     2    30    1
    35     3    31    1
    36     4    32    1
    37     5    33    1
    38     6    34    1
    39     7    35    1
    40     8    36    1
    41     9    37    1
    42    10    38    1
    43    11    39    1
    44    12    40    1
    45    13    41    1
    46    14    42    1
    47    15    43    1
