@<TRIPOS>MOLECULE
AM-807/12740324
 46 49 0 0 0
SMALL
USER_CHARGES

@<TRIPOS>ATOM
      1 C           5.6739   -2.7535    3.1054 C.ar    1  LIG1       -0.1013
      2 C           1.4381    2.8320    0.6605 C.ar    1  LIG1       -0.0761
      3 C           0.5433    1.2025   -0.8825 C.ar    1  LIG1       -0.0765
      4 C           0.1745    3.4098    0.7832 C.ar    1  LIG1       -0.0667
      5 C          -0.7205    1.7802   -0.7598 C.ar    1  LIG1       -0.0667
      6 C           5.1912   -1.5025    2.6237 C.ar    1  LIG1       -0.0819
      7 C           3.3231    0.1059    0.5553 C.ar    1  LIG1       -0.0166
      8 C           5.8746   -3.6580    2.0860 C.ar    1  LIG1       -0.0425
      9 C           3.8330    1.5722   -1.2892 C.ar    1  LIG1        0.0161
     10 C           1.6225    1.7284   -0.1725 C.ar    1  LIG1       -0.0592
     11 C           2.9308    1.1307   -0.2999 C.ar    1  LIG1       -0.0352
     12 C           3.7400    2.5813   -2.3006 C.ar    1  LIG1       -0.0362
     13 C          -0.9048    2.8839    0.0731 C.ar    1  LIG1       -0.0115
     14 C           4.5863   -0.4353    0.3944 C.ar    1  LIG1        0.0157
     15 C           5.0415   -1.4984    1.2542 C.ar    1  LIG1        0.0170
     16 C           4.8842    2.6742   -3.0621 C.ar    1  LIG1        0.1068
     17 C           5.0702    0.9383   -1.3369 C.ar    1  LIG1        0.0600
     18 C           5.1799    3.5466   -4.1549 C.2     1  LIG1        0.1083
     19 C           7.8559    3.4464   -6.7317 C.3     1  LIG1       -0.0475
     20 C           7.5683    5.5012   -5.3031 C.3     1  LIG1       -0.0498
     21 C           6.9009    4.2546   -5.8655 C.3     1  LIG1       -0.0418
     22 N           5.4943   -0.0576   -0.5308 N.ar    1  LIG1       -0.3408
     23 N           2.6576    3.3723   -2.5081 N.pl3   1  LIG1       -0.3976
     24 N           6.4460    3.4319   -4.7678 N.am    1  LIG1       -0.3471
     25 O           4.3529    4.4060   -4.5512 O.2     1  LIG1       -0.4836
     26 S           5.4817   -2.9984    0.5553 S.2     1  LIG1       -0.1154
     27 S           6.0766    1.5525   -2.5689 S.2     1  LIG1       -0.0418
     28 CL         -2.4634    3.5982    0.2239 Cl      1  LIG1       -0.1360
     29 H           5.8651   -2.9788    4.1464 H       1  LIG1        0.1176
     30 H           2.2696    3.2536    1.2202 H       1  LIG1        0.1407
     31 H           0.6712    0.3431   -1.5365 H       1  LIG1        0.1402
     32 H           0.0452    4.2707    1.4344 H       1  LIG1        0.1379
     33 H          -1.5522    1.3607   -1.3200 H       1  LIG1        0.1387
     34 H           4.9687   -0.6524    3.2568 H       1  LIG1        0.1375
     35 H           2.6526   -0.2588    1.3294 H       1  LIG1        0.1483
     36 H           6.2336   -4.6743    2.1668 H       1  LIG1        0.1735
     37 H           8.7402    3.1450   -6.1607 H       1  LIG1        0.0434
     38 H           7.3753    2.5412   -7.1196 H       1  LIG1        0.0525
     39 H           8.1924    4.0347   -7.5924 H       1  LIG1        0.0440
     40 H           8.4483    5.2353   -4.7073 H       1  LIG1        0.0458
     41 H           6.8782    6.0564   -4.6594 H       1  LIG1        0.0390
     42 H           7.9029    6.1715   -6.1028 H       1  LIG1        0.0418
     43 H           6.0253    4.5447   -6.4564 H       1  LIG1        0.1086
     44 H           1.7932    3.2611   -1.9642 H       1  LIG1        0.2769
     45 H           2.6224    4.0508   -3.2786 H       1  LIG1        0.2641
     46 H           7.1109    2.7704   -4.3803 H       1  LIG1        0.2972
@<TRIPOS>BOND
     1     1     6   ar
     2     1     8   ar
     3     2     4   ar
     4     2    10   ar
     5     3     5   ar
     6     3    10   ar
     7     4    13   ar
     8     5    13   ar
     9     6    15   ar
    10     7    11   ar
    11     7    14   ar
    12     8    26   ar
    13     9    11   ar
    14     9    12   ar
    15     9    17   ar
    16    10    11    1
    17    12    16   ar
    18    12    23    1
    19    13    28    1
    20    14    15    1
    21    14    22   ar
    22    15    26   ar
    23    16    18    1
    24    16    27   ar
    25    17    22   ar
    26    17    27   ar
    27    18    24   am
    28    18    25    2
    29    19    21    1
    30    20    21    1
    31    21    24    1
    32     1    29    1
    33     2    30    1
    34     3    31    1
    35     4    32    1
    36     5    33    1
    37     6    34    1
    38     7    35    1
    39     8    36    1
    40    19    37    1
    41    19    38    1
    42    19    39    1
    43    20    40    1
    44    20    41    1
    45    20    42    1
    46    21    43    1
    47    23    44    1
    48    23    45    1
    49    24    46    1
