@<TRIPOS>MOLECULE
AG-690/40749461
 40 42 0 0 0
SMALL
USER_CHARGES

@<TRIPOS>ATOM
      1 C           2.9914    2.8975   -2.2042 C.1     1  LIG1        0.0752
      2 C           5.0329   -1.1240    2.3900 C.ar    1  LIG1       -0.0630
      3 C           5.2664   -2.4822    0.4056 C.ar    1  LIG1       -0.0767
      4 C           1.1119    2.9037    0.7678 C.ar    1  LIG1       -0.0743
      5 C           0.2001    1.2954   -0.7875 C.ar    1  LIG1       -0.0755
      6 C           5.5539   -2.1623    3.1620 C.ar    1  LIG1       -0.0496
      7 C           5.7874   -3.5206    1.1777 C.ar    1  LIG1       -0.0645
      8 C          -0.1681    3.4091    0.9956 C.ar    1  LIG1       -0.0661
      9 C          -1.0799    1.8007   -0.5597 C.ar    1  LIG1       -0.0662
     10 C           3.0773    0.2857    0.4467 C.ar    1  LIG1       -0.0194
     11 C           3.4454    1.8264   -1.3630 C.ar    1  LIG1        0.1144
     12 C           1.2961    1.8468   -0.1238 C.ar    1  LIG1       -0.0529
     13 C           4.8891   -1.2840    1.0118 C.ar    1  LIG1       -0.0290
     14 C           2.6239    1.3230   -0.3605 C.ar    1  LIG1       -0.0075
     15 C           5.9311   -3.3605    2.5559 C.ar    1  LIG1       -0.0115
     16 C          -1.2639    2.8576    0.3319 C.ar    1  LIG1       -0.0113
     17 C           4.3500   -0.2095    0.2126 C.ar    1  LIG1       -0.0052
     18 C           4.7017    1.2624   -1.5160 C.ar    1  LIG1        0.0546
     19 C           6.5602   -4.1420    4.7122 C.3     1  LIG1        0.0251
     20 C           7.2276    0.7163   -2.4299 C.3     1  LIG1        0.0100
     21 N           2.6244    3.7634   -2.8841 N.1     1  LIG1       -0.3596
     22 N           5.1769    0.2539   -0.7514 N.ar    1  LIG1       -0.3610
     23 O           6.4400   -4.3732    3.3093 O.3     1  LIG1       -0.4155
     24 S           5.8486    1.8290   -2.7713 S.3     1  LIG1       -0.1277
     25 CL         -2.8427    3.4827    0.6124 Cl      1  LIG1       -0.1376
     26 H           4.7434   -0.1958    2.8769 H       1  LIG1        0.1530
     27 H           5.1606   -2.6223   -0.6675 H       1  LIG1        0.1392
     28 H           1.9563    3.3444    1.2926 H       1  LIG1        0.1416
     29 H           0.3275    0.4718   -1.4862 H       1  LIG1        0.1354
     30 H           5.6637   -2.0317    4.2351 H       1  LIG1        0.1315
     31 H           6.0798   -4.4517    0.7000 H       1  LIG1        0.1155
     32 H          -0.2970    4.2342    1.6917 H       1  LIG1        0.1384
     33 H          -1.9247    1.3620   -1.0848 H       1  LIG1        0.1380
     34 H           2.4553   -0.1253    1.2372 H       1  LIG1        0.1492
     35 H           6.9790   -5.0289    5.1938 H       1  LIG1        0.0905
     36 H           5.5760   -3.9173    5.1310 H       1  LIG1        0.1228
     37 H           7.2266   -3.2919    4.8765 H       1  LIG1        0.0905
     38 H           8.0494    0.9199   -3.1206 H       1  LIG1        0.0801
     39 H           6.9068   -0.3210   -2.5536 H       1  LIG1        0.0801
     40 H           7.5773    0.8625   -1.4051 H       1  LIG1        0.0890
@<TRIPOS>BOND
     1     1    11    1
     2     1    21    3
     3     2     6   ar
     4     2    13   ar
     5     3     7   ar
     6     3    13   ar
     7     4     8   ar
     8     4    12   ar
     9     5     9   ar
    10     5    12   ar
    11     6    15   ar
    12     7    15   ar
    13     8    16   ar
    14     9    16   ar
    15    10    14   ar
    16    10    17   ar
    17    11    14   ar
    18    11    18   ar
    19    12    14    1
    20    13    17    1
    21    15    23    1
    22    16    25    1
    23    17    22   ar
    24    18    22   ar
    25    18    24    1
    26    19    23    1
    27    20    24    1
    28     2    26    1
    29     3    27    1
    30     4    28    1
    31     5    29    1
    32     6    30    1
    33     7    31    1
    34     8    32    1
    35     9    33    1
    36    10    34    1
    37    19    35    1
    38    19    36    1
    39    19    37    1
    40    20    38    1
    41    20    39    1
    42    20    40    1
