@<TRIPOS>MOLECULE
ZINC03852044
 38 41 0 0 0
SMALL
USER_CHARGES

@<TRIPOS>ATOM
      1 C1          6.2334   -3.3823    2.4020 C.ar    1  <0>1       -0.0616
      2 C2          5.6329   -2.3831    3.1458 C.ar    1  <0>1       -0.0598
      3 C3          4.9341   -1.3740    2.5125 C.ar    1  <0>1       -0.0378
      4 C4          4.8345   -1.3638    1.1276 C.ar    1  <0>1        0.0480
      5 C5          5.4334   -2.3719    0.3839 C.ar    1  <0>1       -0.0378
      6 C6          6.1360   -3.3749    1.0226 C.ar    1  <0>1       -0.0598
      7 N1          4.1264   -0.3416    0.4823 N.ar    1  <0>1       -0.3001
      8 C7          2.8625    0.0639    0.8142 C.ar    1  <0>1        0.0202
      9 C8          2.4805    1.0705   -0.0149 C.ar    1  <0>1        0.0129
     10 C9          3.6051    1.3075   -0.9222 C.ar    1  <0>1        0.0702
     11 C10         4.6025    0.3984   -0.5655 C.ar    1  <0>1        0.1510
     12 N2          5.7628    0.3976   -1.2464 N.ar    1  <0>1       -0.2174
     13 C11         5.9947    1.2135   -2.2300 C.ar    1  <0>1        0.1174
     14 N3          5.0923    2.1368   -2.6573 N.ar    1  <0>1       -0.2394
     15 C12         3.8619    2.2299   -2.0304 C.ar    1  <0>1        0.1554
     16 N4          2.9637    3.1070   -2.4128 N.2     1  <0>1       -0.2815
     17 N5          5.3983    2.9670   -3.6979 N.pl3   1  <0>1       -0.2955
     18 C13         1.1844    1.7904    0.0004 C.ar    1  <0>1       -0.0156
     19 C14        -0.0126    1.0758    0.0080 C.ar    1  <0>1       -0.0526
     20 C15        -1.2161    1.7506    0.0173 C.ar    1  <0>1       -0.0428
     21 C16        -1.2362    3.1349    0.0297 C.ar    1  <0>1        0.0410
     22 C17        -0.0504    3.8493    0.0222 C.ar    1  <0>1       -0.0428
     23 C18         1.1585    3.1842    0.0076 C.ar    1  <0>1       -0.0526
     24 Cl1        -2.7537    3.9778    0.0481 Cl      1  <0>1       -0.0835
     25 H1          6.7799   -4.1699    2.8994 H       1  <0>1        0.0618
     26 H2          5.7107   -2.3916    4.2229 H       1  <0>1        0.0618
     27 H3          4.4659   -0.5936    3.0939 H       1  <0>1        0.0638
     28 H4          5.3539   -2.3691   -0.6932 H       1  <0>1        0.0638
     29 H5          6.6061   -4.1566    0.4444 H       1  <0>1        0.0618
     30 H6          2.2615   -0.3524    1.6092 H       1  <0>1        0.0820
     31 H7          6.9492    1.1563   -2.7319 H       1  <0>1        0.1046
     32 H8          3.1557    3.7082   -3.1495 H       1  <0>1        0.1884
     33 H9          5.8353    3.8145   -3.3680 H       1  <0>1        0.1627
     34 H10         5.9824    2.4987   -4.3744 H       1  <0>1        0.1627
     35 H11         0.0021   -0.0041    0.0020 H       1  <0>1        0.0624
     36 H12        -2.1440    1.1980    0.0187 H       1  <0>1        0.0632
     37 H13        -0.0715    4.9291    0.0275 H       1  <0>1        0.0632
     38 H14         2.0830    3.7424    0.0014 H       1  <0>1        0.0624
@<TRIPOS>BOND
     1     1     6   ar
     2     1     2   ar
     3     1    25    1
     4     2     3   ar
     5     2    26    1
     6     3     4   ar
     7     3    27    1
     8     4     5   ar
     9     4     7    1
    10     5     6   ar
    11     5    28    1
    12     6    29    1
    13     7    11   ar
    14     7     8   ar
    15     8     9   ar
    16     8    30    1
    17     9    10   ar
    18     9    18    1
    19    10    15   ar
    20    10    11   ar
    21    11    12   ar
    22    12    13   ar
    23    13    14   ar
    24    13    31    1
    25    14    15   ar
    26    14    17    1
    27    15    16    2
    28    16    32    1
    29    17    33    1
    30    17    34    1
    31    18    23   ar
    32    18    19   ar
    33    19    20   ar
    34    19    35    1
    35    20    21   ar
    36    20    36    1
    37    21    22   ar
    38    21    24    1
    39    22    23   ar
    40    22    37    1
    41    23    38    1
