@<TRIPOS>MOLECULE
DB00800
 38 40 0 0 0
SMALL
USER_CHARGES

@<TRIPOS>ATOM
      1 C           4.6847   -2.1680    0.4689 C.ar    1  LIG1       -0.0559
      2 C           5.2471   -1.1916    2.5836 C.ar    1  LIG1       -0.0559
      3 C           5.5835   -3.1914    0.6993 C.ar    1  LIG1       -0.0318
      4 C           6.1434   -2.2156    2.8211 C.ar    1  LIG1       -0.0318
      5 C           5.2881    0.7516   -0.3987 C.ar    1  LIG1       -0.0252
      6 C           4.5146   -1.1704    1.4111 C.ar    1  LIG1       -0.0422
      7 C           3.9334    0.6798   -0.0997 C.ar    1  LIG1       -0.0350
      8 C           3.0180    1.2924   -0.9237 C.ar    1  LIG1       -0.0246
      9 C           6.3159   -3.2177    1.8772 C.ar    1  LIG1        0.0713
     10 C           5.7263    1.4561   -1.5055 C.ar    1  LIG1        0.1031
     11 C           4.8016    2.0890   -2.3299 C.ar    1  LIG1        0.1205
     12 C           3.4519    2.0058   -2.0341 C.ar    1  LIG1        0.0767
     13 C           1.5342    1.2049   -0.6765 C.3     1  LIG1       -0.0412
     14 C           1.2088    1.5657    0.7760 C.3     1  LIG1       -0.0895
     15 C           2.1290   -0.6423    1.0255 C.3     1  LIG1       -0.0825
     16 C           3.5338   -0.0549    1.1570 C.3     1  LIG1       -0.0057
     17 N           1.1619    0.3265    1.5529 N.4     1  LIG1        0.3816
     18 O           7.2005   -4.2237    2.1065 O.3     1  LIG1       -0.3609
     19 O           7.0544    1.5253   -1.7895 O.3     1  LIG1       -0.3581
     20 O           5.2220    2.7950   -3.4140 O.3     1  LIG1       -0.3570
     21 CL          2.2937    2.7917   -3.0610 Cl      1  LIG1       -0.0810
     22 H           4.1140   -2.1473   -0.4478 H       1  LIG1        0.0627
     23 H           5.1126   -0.4112    3.3180 H       1  LIG1        0.0627
     24 H           5.7158   -3.9705   -0.0367 H       1  LIG1        0.0650
     25 H           6.7124   -2.2339    3.7389 H       1  LIG1        0.0650
     26 H           6.0047    0.2540    0.2380 H       1  LIG1        0.0654
     27 H           1.0174    1.8955   -1.3429 H       1  LIG1        0.0297
     28 H           1.1952    0.1890   -0.8792 H       1  LIG1        0.0297
     29 H           0.2418    2.0665    0.8232 H       1  LIG1        0.0057
     30 H           1.9832    2.2210    1.1748 H       1  LIG1        0.0057
     31 H           1.9125   -0.8404   -0.0243 H       1  LIG1        0.0063
     32 H           2.0656   -1.5692    1.5953 H       1  LIG1        0.0063
     33 H           3.5548    0.6375    1.9985 H       1  LIG1        0.0382
     34 H           0.2337   -0.0656    1.5005 H       1  LIG1       -0.0861
     35 H           1.3844    0.5301    2.5158 H       1  LIG1       -0.0861
     36 H           8.0511   -3.9347    1.7489 H       1  LIG1        0.2182
     37 H           7.2573    0.7737   -2.3630 H       1  LIG1        0.2183
     38 H           5.2493    2.1764   -4.1568 H       1  LIG1        0.2184
@<TRIPOS>BOND
     1     1     3   ar
     2     1     6   ar
     3     2     4   ar
     4     2     6   ar
     5     3     9   ar
     6     4     9   ar
     7     5     7   ar
     8     5    10   ar
     9     6    16    1
    10     7     8   ar
    11     7    16    1
    12     8    12   ar
    13     8    13    1
    14     9    18    1
    15    10    11   ar
    16    10    19    1
    17    11    12   ar
    18    11    20    1
    19    12    21    1
    20    13    14    1
    21    14    17    1
    22    15    16    1
    23    15    17    1
    24     1    22    1
    25     2    23    1
    26     3    24    1
    27     4    25    1
    28     5    26    1
    29    13    27    1
    30    13    28    1
    31    14    29    1
    32    14    30    1
    33    15    31    1
    34    15    32    1
    35    16    33    1
    36    17    34    1
    37    17    35    1
    38    18    36    1
    39    19    37    1
    40    20    38    1
