@<TRIPOS>MOLECULE
DB03509
 30 32 0 0 0
SMALL
USER_CHARGES

@<TRIPOS>ATOM
      1 C           6.9069    0.0423   -1.5468 C.ar    1  LIG1       -0.0592
      2 C          -0.1093    1.2620   -0.3207 C.ar    1  LIG1       -0.0513
      3 C           0.9833    3.3741    0.1065 C.ar    1  LIG1       -0.0513
      4 C           6.5398    1.0741   -2.3979 C.ar    1  LIG1       -0.0473
      5 C           6.0129   -0.3951   -0.5712 C.ar    1  LIG1       -0.0342
      6 C          -1.3527    1.8889   -0.2398 C.ar    1  LIG1       -0.0428
      7 C          -0.2600    4.0009    0.1874 C.ar    1  LIG1       -0.0428
      8 C           2.7052    0.3380    0.6096 C.ar    1  LIG1        0.0539
      9 C           1.0588    2.0046   -0.1475 C.ar    1  LIG1        0.0018
     10 C           5.2820    1.6598   -2.2657 C.ar    1  LIG1        0.0647
     11 C           4.7536    0.1833   -0.4308 C.ar    1  LIG1        0.0895
     12 C           4.3813    1.2301   -1.2940 C.ar    1  LIG1        0.1019
     13 C          -1.4281    3.2583    0.0142 C.ar    1  LIG1        0.0406
     14 C           2.3429    1.3569   -0.2305 C.ar    1  LIG1        0.0893
     15 C           4.9311    2.7413   -3.1796 C.2     1  LIG1        0.2426
     16 N           3.9086   -0.2562    0.5183 N.ar    1  LIG1       -0.2523
     17 N           3.1734    1.8110   -1.1863 N.ar    1  LIG1       -0.2436
     18 N           5.8781    3.1171   -4.1249 N.am    1  LIG1       -0.3250
     19 O           3.8339    3.3166   -3.1053 O.2     1  LIG1       -0.2720
     20 CL         -2.9628    4.0309    0.1154 Cl      1  LIG1       -0.0843
     21 H           7.8836   -0.4226   -1.6389 H       1  LIG1        0.0623
     22 H          -0.0669    0.1937   -0.5192 H       1  LIG1        0.0630
     23 H           1.8849    3.9664    0.2447 H       1  LIG1        0.0630
     24 H           7.2360    1.4155   -3.1591 H       1  LIG1        0.0632
     25 H           6.3138   -1.2057    0.0894 H       1  LIG1        0.0646
     26 H          -2.2552    1.2979   -0.3749 H       1  LIG1        0.0638
     27 H          -0.3038    5.0687    0.3871 H       1  LIG1        0.0638
     28 H           2.0529   -0.0440    1.3863 H       1  LIG1        0.0863
     29 H           6.7712    2.6370   -4.1522 H       1  LIG1        0.1458
     30 H           5.6936    3.8625   -4.7885 H       1  LIG1        0.1458
@<TRIPOS>BOND
     1     1     4   ar
     2     1     5   ar
     3     2     6   ar
     4     2     9   ar
     5     3     7   ar
     6     3     9   ar
     7     4    10   ar
     8     5    11   ar
     9     6    13   ar
    10     7    13   ar
    11     8    14   ar
    12     8    16   ar
    13     9    14    1
    14    10    12   ar
    15    10    15    1
    16    11    12   ar
    17    11    16   ar
    18    12    17   ar
    19    13    20    1
    20    14    17   ar
    21    15    18   am
    22    15    19    2
    23     1    21    1
    24     2    22    1
    25     3    23    1
    26     4    24    1
    27     5    25    1
    28     6    26    1
    29     7    27    1
    30     8    28    1
    31    18    29    1
    32    18    30    1
