@<TRIPOS>MOLECULE
DB04463
 38 40 0 0 0
SMALL
USER_CHARGES

@<TRIPOS>ATOM
      1 C          -0.1368    3.4224    0.9621 C.ar    1  LIG1       -0.0590
      2 C           1.1104    2.8047    0.8709 C.ar    1  LIG1       -0.0525
      3 C          -1.2165    2.9248    0.2324 C.ar    1  LIG1       -0.0320
      4 C           0.1984    1.1919   -0.6795 C.ar    1  LIG1       -0.0226
      5 C           5.9400    1.2230   -2.2057 C.ar    1  LIG1        0.1195
      6 C           3.6022    1.3394   -0.9515 C.ar    1  LIG1        0.0844
      7 C           1.2781    1.6895    0.0501 C.ar    1  LIG1        0.0052
      8 C          -1.0489    1.8096   -0.5883 C.ar    1  LIG1        0.0720
      9 C           2.5667    1.0509   -0.0432 C.ar    1  LIG1        0.1031
     10 C           4.6064    0.4477   -0.6173 C.ar    1  LIG1        0.1550
     11 C           3.8557    2.2111   -2.0053 C.ar    1  LIG1        0.1297
     12 C           6.1317   -0.8352    1.7794 C.3     1  LIG1       -0.0421
     13 C           5.1698   -2.5220    0.1640 C.3     1  LIG1       -0.0421
     14 C           4.0048   -2.0103    2.2971 C.3     1  LIG1       -0.0421
     15 C           4.8312   -1.3805    1.1485 C.3     1  LIG1        0.0499
     16 N           5.8090    0.3291   -1.2018 N.ar    1  LIG1       -0.2188
     17 N           5.0502    2.1467   -2.6407 N.ar    1  LIG1       -0.2211
     18 N           2.8801    0.0608    0.7997 N.ar    1  LIG1       -0.1781
     19 N           4.1259   -0.2861    0.4263 N.ar    1  LIG1       -0.2013
     20 N           2.8971    3.1531   -2.4207 N.pl3   1  LIG1       -0.3425
     21 O          -2.1026    1.3256   -1.3012 O.3     1  LIG1       -0.3609
     22 H          -0.2676    4.2911    1.6010 H       1  LIG1        0.0624
     23 H           1.9421    3.2049    1.4464 H       1  LIG1        0.0630
     24 H          -2.1860    3.4103    0.3069 H       1  LIG1        0.0650
     25 H           0.3185    0.3218   -1.3216 H       1  LIG1        0.0657
     26 H           6.8852    1.1967   -2.7374 H       1  LIG1        0.1063
     27 H           5.9190   -0.0224    2.4834 H       1  LIG1        0.0253
     28 H           6.6775   -1.6047    2.3356 H       1  LIG1        0.0253
     29 H           6.8072   -0.4439    1.0097 H       1  LIG1        0.0253
     30 H           4.2757   -2.9410   -0.3093 H       1  LIG1        0.0253
     31 H           5.8217   -2.1678   -0.6430 H       1  LIG1        0.0253
     32 H           5.6861   -3.3421    0.6764 H       1  LIG1        0.0253
     33 H           3.0598   -2.4219    1.9225 H       1  LIG1        0.0253
     34 H           4.5440   -2.8348    2.7779 H       1  LIG1        0.0253
     35 H           3.7500   -1.2700    3.0642 H       1  LIG1        0.0253
     36 H           1.9975    3.1661   -1.9803 H       1  LIG1        0.1442
     37 H           3.0912    3.7350   -3.2128 H       1  LIG1        0.1442
     38 H          -1.8304    0.5524   -1.8208 H       1  LIG1        0.2182
@<TRIPOS>BOND
     1     1     2   ar
     2     1     3   ar
     3     2     7   ar
     4     3     8   ar
     5     4     7   ar
     6     4     8   ar
     7     5    16   ar
     8     5    17   ar
     9     6     9   ar
    10     6    10   ar
    11     6    11   ar
    12     7     9    1
    13     8    21    1
    14     9    18   ar
    15    10    16   ar
    16    10    19   ar
    17    11    17   ar
    18    11    20    1
    19    12    15    1
    20    13    15    1
    21    14    15    1
    22    15    19    1
    23    18    19   ar
    24     1    22    1
    25     2    23    1
    26     3    24    1
    27     4    25    1
    28     5    26    1
    29    12    27    1
    30    12    28    1
    31    12    29    1
    32    13    30    1
    33    13    31    1
    34    13    32    1
    35    14    33    1
    36    14    34    1
    37    14    35    1
    38    20    36    1
    39    20    37    1
    40    21    38    1
