@<TRIPOS>MOLECULE
DB07151
 35 37 0 0 0
SMALL
USER_CHARGES

@<TRIPOS>ATOM
      1 C          -1.0948    2.9302    0.0699 C.ar    1  LIG1       -0.0622
      2 C          -0.7418    1.6598    0.5249 C.ar    1  LIG1       -0.0616
      3 C          -0.1486    3.7291   -0.5721 C.ar    1  LIG1       -0.0616
      4 C           0.5575    1.1883    0.3379 C.ar    1  LIG1       -0.0531
      5 C           1.1507    3.2576   -0.7590 C.ar    1  LIG1       -0.0531
      6 C           5.9746   -2.2256    0.2330 C.ar    1  LIG1       -0.0505
      7 C           6.4593   -3.3020    0.9759 C.ar    1  LIG1       -0.0311
      8 C           4.9419   -1.3190    2.2201 C.ar    1  LIG1       -0.0476
      9 C           1.5039    1.9871   -0.3040 C.ar    1  LIG1       -0.0035
     10 C           5.2159   -1.2341    0.8551 C.ar    1  LIG1       -0.0030
     11 C           5.4265   -2.3954    2.9631 C.ar    1  LIG1       -0.0204
     12 C           6.1853   -3.3869    2.3410 C.ar    1  LIG1        0.0743
     13 C           2.8585    1.4954   -0.4988 C.2     1  LIG1        0.0594
     14 C           4.7097   -0.1091    0.0775 C.2     1  LIG1        0.0595
     15 C           4.8625    1.4118   -1.6594 C.2     1  LIG1        0.3671
     16 C           3.4169    0.5281    0.5141 C.3     1  LIG1        0.0339
     17 C           5.1226   -2.4714    4.4230 C.3     1  LIG1       -0.0372
     18 N           3.5742    1.8889   -1.5059 N.am    1  LIG1       -0.1956
     19 N           5.3621    0.3372   -0.9478 N.am    1  LIG1       -0.1956
     20 O           5.5924    1.9554   -2.4861 O.2     1  LIG1       -0.2436
     21 O           6.6644   -4.4465    3.0511 O.3     1  LIG1       -0.3606
     22 H          -2.1065    3.2974    0.2154 H       1  LIG1        0.0622
     23 H          -1.4787    1.0381    1.0249 H       1  LIG1        0.0623
     24 H          -0.4236    4.7182   -0.9266 H       1  LIG1        0.0623
     25 H           0.8219    0.1968    0.6964 H       1  LIG1        0.0629
     26 H           1.8799    3.8887   -1.2605 H       1  LIG1        0.0629
     27 H           6.1947   -2.1687   -0.8301 H       1  LIG1        0.0630
     28 H           7.0512   -4.0697    0.4852 H       1  LIG1        0.0650
     29 H           4.3496   -0.5470    2.7063 H       1  LIG1        0.0633
     30 H           3.6008    1.0755    1.4458 H       1  LIG1        0.0399
     31 H           2.6762   -0.2549    0.7101 H       1  LIG1        0.0399
     32 H           4.1875   -3.0191    4.5887 H       1  LIG1        0.0281
     33 H           5.9266   -2.9794    4.9698 H       1  LIG1        0.0281
     34 H           5.0231   -1.4699    4.8601 H       1  LIG1        0.0281
     35 H           7.1662   -5.0395    2.4703 H       1  LIG1        0.2182
@<TRIPOS>BOND
     1     1     2   ar
     2     1     3   ar
     3     2     4   ar
     4     3     5   ar
     5     4     9   ar
     6     5     9   ar
     7     6     7   ar
     8     6    10   ar
     9     7    12   ar
    10     8    10   ar
    11     8    11   ar
    12     9    13    1
    13    10    14    1
    14    11    12   ar
    15    11    17    1
    16    12    21    1
    17    13    16    1
    18    13    18    2
    19    14    16    1
    20    14    19    2
    21    15    18    1
    22    15    19    1
    23    15    20    2
    24     1    22    1
    25     2    23    1
    26     3    24    1
    27     4    25    1
    28     5    26    1
    29     6    27    1
    30     7    28    1
    31     8    29    1
    32    16    30    1
    33    16    31    1
    34    17    32    1
    35    17    33    1
    36    17    34    1
    37    21    35    1
