@<TRIPOS>MOLECULE
DB08300
 34 37 0 0 0
SMALL
USER_CHARGES

@<TRIPOS>ATOM
      1 C          -3.5443    3.2740   -0.6583 C.ar    1  LIG1       -0.0616
      2 C          -3.3886    2.1400   -1.4499 C.ar    1  LIG1       -0.0616
      3 C          -2.4732    3.7500    0.0985 C.ar    1  LIG1       -0.0544
      4 C          -2.1614    1.4776   -1.4878 C.ar    1  LIG1       -0.0543
      5 C          -0.1419    3.5608    0.8279 C.ar    1  LIG1       -0.0537
      6 C           1.0854    2.8983    0.7901 C.ar    1  LIG1       -0.0521
      7 C           0.1699    1.2882   -0.7583 C.ar    1  LIG1       -0.0448
      8 C           5.9520    1.0983   -2.0887 C.ar    1  LIG1        0.1195
      9 C          -1.2307    3.0957    0.0726 C.ar    1  LIG1       -0.0183
     10 C          -1.0725    1.9425   -0.7324 C.ar    1  LIG1       -0.0177
     11 C           3.5792    1.3186   -0.9168 C.ar    1  LIG1        0.0844
     12 C           1.2409    1.7642   -0.0015 C.ar    1  LIG1        0.0033
     13 C           2.5048    1.0834   -0.0387 C.ar    1  LIG1        0.1030
     14 C           4.5406    0.4006   -0.5319 C.ar    1  LIG1        0.1542
     15 C           3.8972    2.1598   -1.9779 C.ar    1  LIG1        0.1297
     16 C           4.6245   -1.3646    1.2519 C.3     1  LIG1        0.0250
     17 N           5.7572    0.2298   -1.0730 N.ar    1  LIG1       -0.2189
     18 N           5.1093    2.0424   -2.5712 N.ar    1  LIG1       -0.2211
     19 N           2.7561    0.1005    0.8330 N.ar    1  LIG1       -0.1789
     20 N           4.0010   -0.2954    0.5087 N.ar    1  LIG1       -0.2098
     21 N           2.9858    3.1247   -2.4434 N.pl3   1  LIG1       -0.3425
     22 H          -4.5001    3.7891   -0.6295 H       1  LIG1        0.0623
     23 H          -4.2228    1.7701   -2.0390 H       1  LIG1        0.0623
     24 H          -2.6177    4.6381    0.7101 H       1  LIG1        0.0629
     25 H          -2.0630    0.5930   -2.1135 H       1  LIG1        0.0629
     26 H          -0.2409    4.4456    1.4533 H       1  LIG1        0.0629
     27 H           1.9107    3.2813    1.3859 H       1  LIG1        0.0630
     28 H           0.2985    0.4001   -1.3762 H       1  LIG1        0.0636
     29 H           6.9129    1.0296   -2.5876 H       1  LIG1        0.1063
     30 H           5.1634   -0.9209    2.0932 H       1  LIG1        0.0454
     31 H           3.8560   -2.0546    1.6112 H       1  LIG1        0.0454
     32 H           5.3137   -1.9054    0.5974 H       1  LIG1        0.0454
     33 H           2.0729    3.1768   -2.0342 H       1  LIG1        0.1442
     34 H           3.2259    3.6836   -3.2395 H       1  LIG1        0.1442
@<TRIPOS>BOND
     1     1     2   ar
     2     1     3   ar
     3     2     4   ar
     4     3     9   ar
     5     4    10   ar
     6     5     6   ar
     7     5     9   ar
     8     6    12   ar
     9     7    10   ar
    10     7    12   ar
    11     8    17   ar
    12     8    18   ar
    13     9    10   ar
    14    11    13   ar
    15    11    14   ar
    16    11    15   ar
    17    12    13    1
    18    13    19   ar
    19    14    17   ar
    20    14    20   ar
    21    15    18   ar
    22    15    21    1
    23    16    20    1
    24    19    20   ar
    25     1    22    1
    26     2    23    1
    27     3    24    1
    28     4    25    1
    29     5    26    1
    30     6    27    1
    31     7    28    1
    32     8    29    1
    33    16    30    1
    34    16    31    1
    35    16    32    1
    36    21    33    1
    37    21    34    1
