@<TRIPOS>MOLECULE
DB08789
 35 37 0 0 0
SMALL
USER_CHARGES

@<TRIPOS>ATOM
      1 C           1.3786    3.8020   -0.5485 C.ar    1  LIG1       -0.0498
      2 C           0.1022    4.1795   -0.1316 C.ar    1  LIG1       -0.0427
      3 C           3.3922    0.2532    0.2964 C.ar    1  LIG1       -0.0306
      4 C          -0.7090    1.9522   -0.5989 C.ar    1  LIG1       -0.0241
      5 C           3.6776    1.1387   -0.7900 C.ar    1  LIG1        0.0350
      6 C           1.6113    2.4996   -0.9907 C.ar    1  LIG1        0.0197
      7 C          -0.9417    3.2546   -0.1568 C.ar    1  LIG1        0.0421
      8 C           0.5674    1.5747   -1.0159 C.ar    1  LIG1        0.0515
      9 C           2.9419    2.1533   -1.4108 C.ar    1  LIG1        0.0855
     10 C           4.4382   -0.6013    0.5693 C.ar    1  LIG1        0.0770
     11 C           4.9502    0.9067   -1.2958 C.ar    1  LIG1        0.1143
     12 C           4.7208    2.5131   -2.8269 C.ar    1  LIG1        0.2126
     13 C           4.5271   -1.6152    1.5694 C.2     1  LIG1        0.2498
     14 C           6.9361   -4.0309    2.5781 C.3     1  LIG1       -0.0496
     15 C           5.5042   -3.8621    2.1989 C.3     1  LIG1        0.0085
     16 N           3.4736    2.8459   -2.4406 N.ar    1  LIG1       -0.2145
     17 N           5.5291    1.5656   -2.3187 N.ar    1  LIG1       -0.2078
     18 N           5.2479    3.2560   -3.9074 N.pl3   1  LIG1       -0.3273
     19 N           5.3313   -2.7444    1.2991 N.am    1  LIG1       -0.3112
     20 O           3.8965   -1.5273    2.6544 O.2     1  LIG1       -0.2712
     21 S           5.7667   -0.3452   -0.4773 S.2     1  LIG1       -0.0638
     22 CL         -2.5161    3.7217    0.3577 Cl      1  LIG1       -0.0843
     23 CL          0.7990   -0.0527   -1.5542 Cl      1  LIG1       -0.0835
     24 H           2.1806    4.5361   -0.5219 H       1  LIG1        0.0631
     25 H          -0.0645    5.1977    0.2104 H       1  LIG1        0.0638
     26 H           2.4624    0.2433    0.8521 H       1  LIG1        0.0644
     27 H          -1.5252    1.2329   -0.6174 H       1  LIG1        0.0654
     28 H           7.5548   -4.2195    1.6941 H       1  LIG1        0.0246
     29 H           7.3098   -3.1415    3.0973 H       1  LIG1        0.0246
     30 H           7.0427   -4.8876    3.2542 H       1  LIG1        0.0246
     31 H           4.8921   -3.6740    3.0862 H       1  LIG1        0.0464
     32 H           5.1282   -4.7571    1.6947 H       1  LIG1        0.0464
     33 H           4.6718    3.9392   -4.3530 H       1  LIG1        0.1457
     34 H           6.1498    3.0189   -4.2646 H       1  LIG1        0.1457
     35 H           5.7746   -2.8119    0.3887 H       1  LIG1        0.1496
@<TRIPOS>BOND
     1     1     2   ar
     2     1     6   ar
     3     2     7   ar
     4     3     5   ar
     5     3    10   ar
     6     4     7   ar
     7     4     8   ar
     8     5     9   ar
     9     5    11   ar
    10     6     8   ar
    11     6     9    1
    12     7    22    1
    13     8    23    1
    14     9    16   ar
    15    10    13    1
    16    10    21   ar
    17    11    17   ar
    18    11    21   ar
    19    12    16   ar
    20    12    17   ar
    21    12    18    1
    22    13    19   am
    23    13    20    2
    24    14    15    1
    25    15    19    1
    26     1    24    1
    27     2    25    1
    28     3    26    1
    29     4    27    1
    30    14    28    1
    31    14    29    1
    32    14    30    1
    33    15    31    1
    34    15    32    1
    35    18    33    1
    36    18    34    1
    37    19    35    1
