@<TRIPOS>MOLECULE
DB08470
 28 30 0 0 0
SMALL
USER_CHARGES

@<TRIPOS>ATOM
      1 C          -1.1657    3.0581    0.0667 C.ar    1  LIG1       -0.0622
      2 C          -0.0199    3.7285   -0.3615 C.ar    1  LIG1       -0.0615
      3 C          -1.0855    1.7232    0.4633 C.ar    1  LIG1       -0.0615
      4 C           1.2061    3.0641   -0.3931 C.ar    1  LIG1       -0.0514
      5 C           0.1406    1.0587    0.4316 C.ar    1  LIG1       -0.0514
      6 C           5.7871   -2.1680    0.4622 C.ar    1  LIG1       -0.0485
      7 C           4.6047   -1.6610    2.5071 C.ar    1  LIG1       -0.0485
      8 C           6.4771   -3.1898    1.1145 C.ar    1  LIG1       -0.0256
      9 C           5.2947   -2.6827    3.1594 C.ar    1  LIG1       -0.0256
     10 C           1.2864    1.7291    0.0034 C.ar    1  LIG1        0.0169
     11 C           4.8509   -1.4036    1.1585 C.ar    1  LIG1        0.0171
     12 C           6.2310   -3.4471    2.4632 C.ar    1  LIG1        0.1228
     13 C           2.5543    1.0425   -0.0284 C.ar    1  LIG1        0.1530
     14 C           4.1380   -0.3494    0.4851 C.ar    1  LIG1        0.1530
     15 N           3.5570    1.2659   -0.8475 N.ar    1  LIG1       -0.1325
     16 N           4.5647    0.3805   -0.5207 N.ar    1  LIG1       -0.1325
     17 N           2.8767    0.0335    0.8276 N.ar    1  LIG1       -0.2803
     18 F           6.8929   -4.4290    3.0895 F       1  LIG1       -0.2069
     19 H          -2.1202    3.5757    0.0919 H       1  LIG1        0.0622
     20 H          -0.0827    4.7679   -0.6705 H       1  LIG1        0.0623
     21 H          -1.9775    1.2014    0.7977 H       1  LIG1        0.0623
     22 H           2.0906    3.6013   -0.7268 H       1  LIG1        0.0630
     23 H           0.1863    0.0178    0.7430 H       1  LIG1        0.0630
     24 H           5.9909   -1.9797   -0.5894 H       1  LIG1        0.0631
     25 H           3.8774   -1.0743    3.0636 H       1  LIG1        0.0631
     26 H           7.2053   -3.7856    0.5722 H       1  LIG1        0.0653
     27 H           5.1032   -2.8831    4.2096 H       1  LIG1        0.0653
     28 H           2.2997   -0.3509    1.5656 H       1  LIG1        0.1560
@<TRIPOS>BOND
     1     1     2   ar
     2     1     3   ar
     3     2     4   ar
     4     3     5   ar
     5     4    10   ar
     6     5    10   ar
     7     6     8   ar
     8     6    11   ar
     9     7     9   ar
    10     7    11   ar
    11     8    12   ar
    12     9    12   ar
    13    10    13    1
    14    11    14    1
    15    12    18    1
    16    13    15   ar
    17    13    17   ar
    18    14    16   ar
    19    14    17   ar
    20    15    16   ar
    21     1    19    1
    22     2    20    1
    23     3    21    1
    24     4    22    1
    25     5    23    1
    26     6    24    1
    27     7    25    1
    28     8    26    1
    29     9    27    1
    30    17    28    1
