@<TRIPOS>MOLECULE
DB08317
 33 35 0 0 0
SMALL
USER_CHARGES

@<TRIPOS>ATOM
      1 C          -1.4404    3.1664    0.1167 C.ar    1  LIG1       -0.0622
      2 C          -0.3222    3.9785    0.1786 C.ar    1  LIG1       -0.0616
      3 C          -1.3044    1.8099   -0.1176 C.ar    1  LIG1       -0.0616
      4 C           0.9362    3.4386    0.0063 C.ar    1  LIG1       -0.0544
      5 C          -0.0513    1.2603   -0.2971 C.ar    1  LIG1       -0.0544
      6 C           2.8556    0.4417    0.4157 C.ar    1  LIG1       -0.0519
      7 C           4.0910   -0.1086    0.2685 C.ar    1  LIG1       -0.0349
      8 C           4.5293    1.4178   -1.5796 C.ar    1  LIG1        0.0438
      9 C           1.0791    2.0727   -0.2305 C.ar    1  LIG1       -0.0181
     10 C           2.4291    1.4867   -0.4170 C.ar    1  LIG1       -0.0146
     11 C           3.2596    1.9759   -1.4122 C.ar    1  LIG1       -0.0303
     12 C           4.9517    0.3625   -0.7340 C.ar    1  LIG1        0.0779
     13 C           5.4233    1.8770   -2.5801 C.ar    1  LIG1        0.1284
     14 C           6.9671    0.3086   -1.8607 C.ar    1  LIG1        0.2133
     15 C           2.7982    3.0991   -2.3046 C.3     1  LIG1       -0.0384
     16 N           6.1751   -0.1569   -0.9135 N.ar    1  LIG1       -0.2151
     17 N           6.6107    1.2971   -2.6759 N.ar    1  LIG1       -0.1999
     18 N           5.0660    2.9001   -3.4314 N.pl3   1  LIG1       -0.3426
     19 N           8.2207   -0.2553   -2.0120 N.pl3   1  LIG1       -0.3273
     20 H          -2.4232    3.5931    0.2522 H       1  LIG1        0.0622
     21 H          -0.4341    5.0367    0.3625 H       1  LIG1        0.0623
     22 H          -2.1809    1.1806   -0.1646 H       1  LIG1        0.0623
     23 H           1.8085    4.0734    0.0552 H       1  LIG1        0.0629
     24 H           0.0537    0.2010   -0.4800 H       1  LIG1        0.0629
     25 H           2.1960    0.0717    1.1867 H       1  LIG1        0.0630
     26 H           4.4055   -0.9127    0.9172 H       1  LIG1        0.0646
     27 H           2.4189    2.6876   -3.2400 H       1  LIG1        0.0280
     28 H           2.0062    3.6576   -1.8057 H       1  LIG1        0.0280
     29 H           3.6357    3.7645   -2.5137 H       1  LIG1        0.0280
     30 H           5.7048    3.5977   -3.6464 H       1  LIG1        0.1442
     31 H           4.1755    2.9228   -3.8156 H       1  LIG1        0.1442
     32 H           8.8193    0.0713   -2.7019 H       1  LIG1        0.1457
     33 H           8.5013   -0.9775   -1.4284 H       1  LIG1        0.1457
@<TRIPOS>BOND
     1     1     2   ar
     2     1     3   ar
     3     2     4   ar
     4     3     5   ar
     5     4     9   ar
     6     5     9   ar
     7     6     7   ar
     8     6    10   ar
     9     7    12   ar
    10     8    11   ar
    11     8    12   ar
    12     8    13   ar
    13     9    10    1
    14    10    11   ar
    15    11    15    1
    16    12    16   ar
    17    13    17   ar
    18    13    18    1
    19    14    16   ar
    20    14    17   ar
    21    14    19    1
    22     1    20    1
    23     2    21    1
    24     3    22    1
    25     4    23    1
    26     5    24    1
    27     6    25    1
    28     7    26    1
    29    15    27    1
    30    15    28    1
    31    15    29    1
    32    18    30    1
    33    18    31    1
    34    19    32    1
    35    19    33    1
