@<TRIPOS>MOLECULE
ZINC03902181
   42    45     0     0     0
SMALL
USER_CHARGES
3-(4-hydroxyphenyl)-2-styryl-quinazolin-4-one
@<TRIPOS>ATOM
      1 C1         -1.1057    3.1957   -4.0424 C.ar      1 <0>        -0.1047
      2 C2          0.0514    2.4716   -4.2709 C.ar      1 <0>        -0.1227
      3 C3          0.2404    1.2538   -3.6523 C.ar      1 <0>        -0.0900
      4 C4         -0.7405    0.7512   -2.7919 C.ar      1 <0>        -0.0818
      5 C5         -1.9092    1.4861   -2.5704 C.ar      1 <0>        -0.0991
      6 C6         -2.0813    2.7048   -3.1922 C.ar      1 <0>        -0.1224
      7 C7         -0.5465   -0.5482   -2.1274 C.2       1 <0>        -0.0008
      8 C8         -1.4942   -1.0295   -1.2988 C.2       1 <0>        -0.1611
      9 C9         -1.3012   -2.3219   -0.6379 C.2       1 <0>         0.4405
     10 N1         -0.1531   -2.9399   -0.7920 N.2       1 <0>        -0.5189
     11 C10         0.0918   -4.1303   -0.2131 C.ar      1 <0>         0.1619
     12 C11         1.3167   -4.7853   -0.3794 C.ar      1 <0>        -0.1121
     13 C12         1.5288   -5.9923    0.2242 C.ar      1 <0>        -0.0702
     14 C13         0.5438   -6.5842    1.0048 C.ar      1 <0>        -0.1395
     15 C14        -0.6731   -5.9641    1.1877 C.ar      1 <0>        -0.0390
     16 C15        -0.9119   -4.7320    0.5815 C.ar      1 <0>        -0.2011
     17 C16        -2.1901   -4.0248    0.7420 C.2       1 <0>         0.5513
     18 O1         -3.0909   -4.4935    1.4135 O.2       1 <0>        -0.4966
     19 N2         -2.3269   -2.8307    0.1198 N.am      1 <0>        -0.5004
     20 C17        -3.5234   -2.1126    0.2450 C.ar      1 <0>         0.0958
     21 C18        -4.5665   -2.3403   -0.6431 C.ar      1 <0>        -0.0793
     22 C19        -5.7474   -1.6365   -0.5156 C.ar      1 <0>        -0.1340
     23 C20        -5.8879   -0.6936    0.4925 C.ar      1 <0>         0.1251
     24 C21        -4.8441   -0.4614    1.3766 C.ar      1 <0>        -0.1345
     25 C22        -3.6648   -1.1687    1.2538 C.ar      1 <0>        -0.0815
     26 O2         -7.0488    0.0035    0.6138 O.3       1 <0>        -0.4951
     27 H1         -1.2481    4.1489   -4.5299 H         1 <0>         0.1253
     28 H2          0.8081    2.8613   -4.9357 H         1 <0>         0.1275
     29 H3          1.1439    0.6900   -3.8315 H         1 <0>         0.1299
     30 H4         -2.6735    1.1021   -1.9110 H         1 <0>         0.1250
     31 H5         -2.9814    3.2758   -3.0187 H         1 <0>         0.1260
     32 H6          0.3553   -1.1157   -2.3040 H         1 <0>         0.1450
     33 H7         -2.3960   -0.4620   -1.1223 H         1 <0>         0.1400
     34 H8          2.0923   -4.3382   -0.9835 H         1 <0>         0.1402
     35 H9          2.4763   -6.4935    0.0929 H         1 <0>         0.1353
     36 H10         0.7335   -7.5392    1.4721 H         1 <0>         0.1346
     37 H11        -1.4351   -6.4287    1.7959 H         1 <0>         0.1383
     38 H12        -4.4555   -3.0708   -1.4308 H         1 <0>         0.1326
     39 H13        -6.5602   -1.8167   -1.2034 H         1 <0>         0.1406
     40 H14        -4.9541    0.2729    2.1609 H         1 <0>         0.1407
     41 H15        -2.8522   -0.9876    1.9418 H         1 <0>         0.1330
     42 H16        -7.0666    0.8285    0.1097 H         1 <0>         0.3959
@<TRIPOS>BOND
     1    1    6 ar
     2    1    2 ar
     3    1   27 1
     4    2    3 ar
     5    2   28 1
     6    3    4 ar
     7    3   29 1
     8    4    5 ar
     9    4    7 1
    10    5    6 ar
    11    5   30 1
    12    6   31 1
    13    7    8 2
    14    7   32 1
    15    8    9 1
    16    8   33 1
    17    9   19 1
    18    9   10 2
    19   10   11 1
    20   11   16 ar
    21   11   12 ar
    22   12   13 ar
    23   12   34 1
    24   13   14 ar
    25   13   35 1
    26   14   15 ar
    27   14   36 1
    28   15   16 ar
    29   15   37 1
    30   16   17 1
    31   17   18 2
    32   17   19 am
    33   19   20 1
    34   20   25 ar
    35   20   21 ar
    36   21   22 ar
    37   21   38 1
    38   22   23 ar
    39   22   39 1
    40   23   24 ar
    41   23   26 1
    42   24   25 ar
    43   24   40 1
    44   25   41 1
    45   26   42 1