@<TRIPOS>MOLECULE
ZINC03852042
   46    49     0     0     0
SMALL
USER_CHARGES
5-imino-7,9-bis(4-methoxyphenyl)-2,4,9-triazabicyclo[4.3.0]nona-2,7,10-trien-4-amine
@<TRIPOS>ATOM
      1 C1         -2.6676    8.0368   -0.9038 C.3       1 <0>         0.0277
      2 O1         -1.6141    7.9925    0.0607 O.3       1 <0>        -0.3198
      3 C2         -0.8108    6.8962    0.0472 C.ar      1 <0>         0.1270
      4 C3          0.2316    6.7902    0.9577 C.ar      1 <0>        -0.1564
      5 C4          1.0489    5.6792    0.9463 C.ar      1 <0>        -0.0686
      6 C5          0.8272    4.6621    0.0190 C.ar      1 <0>        -0.0486
      7 C6         -0.2170    4.7743   -0.8978 C.ar      1 <0>        -0.0249
      8 C7         -1.0342    5.8853   -0.8774 C.ar      1 <0>        -0.2091
      9 C8          1.7039    3.4662    0.0039 C.2       1 <0>        -0.0481
     10 C9          3.0626    3.4529   -0.0093 C.2       1 <0>         0.0233
     11 N1          3.5031    2.1573   -0.0202 N.pl3     1 <0>        -0.3750
     12 C10         2.4414    1.2950   -0.0148 C.2       1 <0>         0.2667
     13 C11         1.2772    2.0656    0.0010 C.2       1 <0>        -0.1664
     14 C12        -0.0167    1.3798    0.0096 C.2       1 <0>         0.4673
     15 N2         -1.1457    2.0488    0.0187 N.2       1 <0>        -0.7117
     16 N3          0.0021   -0.0041    0.0020 N.pl3     1 <0>        -0.4155
     17 C13         1.1940   -0.6588   -0.0129 C.2       1 <0>         0.3568
     18 N4          2.3394   -0.0465   -0.0210 N.2       1 <0>        -0.5190
     19 N5         -1.1688   -0.7076    0.0090 N.3       1 <0>        -0.6043
     20 C14         4.8507    1.7692   -0.0355 C.ar      1 <0>         0.0763
     21 C15         5.3142    0.8334    0.8794 C.ar      1 <0>        -0.0552
     22 C16         6.6400    0.4480    0.8607 C.ar      1 <0>        -0.1938
     23 C17         7.5110    1.0031   -0.0655 C.ar      1 <0>         0.1362
     24 C18         7.0495    1.9421   -0.9766 C.ar      1 <0>        -0.1371
     25 C19         5.7229    2.3247   -0.9619 C.ar      1 <0>        -0.0729
     26 O2          8.8175    0.6271   -0.0801 O.3       1 <0>        -0.3134
     27 C20         9.2238   -0.3441    0.8861 C.3       1 <0>         0.0244
     28 H1         -2.2435    7.9968   -1.9071 H         1 <0>         0.0548
     29 H2         -3.3317    7.1852   -0.7559 H         1 <0>         0.0554
     30 H3         -3.2311    8.9621   -0.7841 H         1 <0>         0.0986
     31 H4          0.4030    7.5786    1.6756 H         1 <0>         0.1291
     32 H5          1.8599    5.5974    1.6548 H         1 <0>         0.1272
     33 H6         -0.3884    3.9904   -1.6206 H         1 <0>         0.1223
     34 H7         -1.8463    5.9706   -1.5843 H         1 <0>         0.1252
     35 H8          3.6958    4.3279   -0.0110 H         1 <0>         0.1824
     36 H9         -1.9912    1.5733    0.0202 H         1 <0>         0.3432
     37 H10         1.1878   -1.7388   -0.0186 H         1 <0>         0.1963
     38 H11        -1.4874   -0.8888   -0.9311 H         1 <0>         0.3561
     39 H12        -1.0715   -1.5664    0.5296 H         1 <0>         0.3725
     40 H13         4.6371    0.4042    1.6031 H         1 <0>         0.1325
     41 H14         6.9999   -0.2827    1.5699 H         1 <0>         0.1376
     42 H15         7.7281    2.3742   -1.6971 H         1 <0>         0.1419
     43 H16         5.3639    3.0563   -1.6707 H         1 <0>         0.1391
     44 H17         9.0415    0.0426    1.8888 H         1 <0>         0.0582
     45 H18         8.6534   -1.2616    0.7412 H         1 <0>         0.0582
     46 H19        10.2866   -0.5542    0.7654 H         1 <0>         0.1037
@<TRIPOS>BOND
     1    1    2 1
     2    1   28 1
     3    1   29 1
     4    1   30 1
     5    2    3 1
     6    3    8 ar
     7    3    4 ar
     8    4    5 ar
     9    4   31 1
    10    5    6 ar
    11    5   32 1
    12    6    7 ar
    13    6    9 1
    14    7    8 ar
    15    7   33 1
    16    8   34 1
    17    9   13 1
    18    9   10 2
    19   10   11 1
    20   10   35 1
    21   11   12 1
    22   11   20 1
    23   12   18 1
    24   12   13 2
    25   13   14 1
    26   14   15 2
    27   14   16 1
    28   15   36 1
    29   16   17 1
    30   16   19 1
    31   17   18 2
    32   17   37 1
    33   19   38 1
    34   19   39 1
    35   20   25 ar
    36   20   21 ar
    37   21   22 ar
    38   21   40 1
    39   22   23 ar
    40   22   41 1
    41   23   24 ar
    42   23   26 1
    43   24   25 ar
    44   24   42 1
    45   25   43 1
    46   26   27 1
    47   27   44 1
    48   27   45 1
    49   27   46 1