@<TRIPOS>MOLECULE
DB02923
 24 25 0 0 0
SMALL
USER_CHARGES

@<TRIPOS>ATOM
      1 C          -1.0447    2.6619    0.4041 C.ar    1  LIG1       -0.0622
      2 C          -0.5566    1.3614    0.5309 C.ar    1  LIG1       -0.0616
      3 C          -0.2442    3.6555   -0.1592 C.ar    1  LIG1       -0.0616
      4 C           4.8682    0.3905   -0.7011 C.ar    1  LIG1       -0.0588
      5 C           0.7322    1.0546    0.0945 C.ar    1  LIG1       -0.0543
      6 C           1.0447    3.3487   -0.5957 C.ar    1  LIG1       -0.0543
      7 C           3.5784    0.7139   -0.2802 C.ar    1  LIG1       -0.0516
      8 C           5.4494    1.0829   -1.7634 C.ar    1  LIG1       -0.0293
      9 C           1.5329    2.0482   -0.4689 C.ar    1  LIG1       -0.0157
     10 C           2.8695    1.7295   -0.9218 C.ar    1  LIG1        0.0144
     11 C           4.7405    2.0985   -2.4050 C.ar    1  LIG1        0.1019
     12 C           3.4506    2.4219   -1.9841 C.ar    1  LIG1        0.1092
     13 O           5.3208    2.7660   -3.4413 O.3     1  LIG1       -0.3582
     14 O           2.7693    3.4182   -2.6217 O.3     1  LIG1       -0.3577
     15 H          -2.0488    2.9001    0.7425 H       1  LIG1        0.0622
     16 H          -1.1805    0.5873    0.9680 H       1  LIG1        0.0623
     17 H          -0.6241    4.6680   -0.2595 H       1  LIG1        0.0623
     18 H           5.4204   -0.4003   -0.2016 H       1  LIG1        0.0624
     19 H           1.0982    0.0359    0.2000 H       1  LIG1        0.0629
     20 H           1.6570    4.1335   -1.0335 H       1  LIG1        0.0629
     21 H           3.1401    0.1643    0.5496 H       1  LIG1        0.0630
     22 H           6.4546    0.8260   -2.0863 H       1  LIG1        0.0651
     23 H           6.2122    2.4204   -3.6052 H       1  LIG1        0.2183
     24 H           3.3138    3.7921   -3.3309 H       1  LIG1        0.2184
@<TRIPOS>BOND
     1     1     2   ar
     2     1     3   ar
     3     2     5   ar
     4     3     6   ar
     5     4     7   ar
     6     4     8   ar
     7     5     9   ar
     8     6     9   ar
     9     7    10   ar
    10     8    11   ar
    11     9    10    1
    12    10    12   ar
    13    11    12   ar
    14    11    13    1
    15    12    14    1
    16     1    15    1
    17     2    16    1
    18     3    17    1
    19     4    18    1
    20     5    19    1
    21     6    20    1
    22     7    21    1
    23     8    22    1
    24    13    23    1
    25    14    24    1
