@<TRIPOS>MOLECULE
DB03623
 33 36 0 0 0
SMALL
USER_CHARGES

@<TRIPOS>ATOM
      1 C           6.8351   -1.2858   -0.1252 C.ar    1  LIG1       -0.0521
      2 C           0.1417    0.9933    0.4978 C.ar    1  LIG1       -0.0517
      3 C           0.9207    3.1369   -0.2995 C.ar    1  LIG1       -0.0517
      4 C           6.2900   -0.2483   -0.8802 C.ar    1  LIG1       -0.0352
      5 C          -1.1320    1.5279    0.6908 C.ar    1  LIG1       -0.0315
      6 C          -0.3532    3.6715   -0.1065 C.ar    1  LIG1       -0.0315
      7 C           6.6584   -2.9148    1.6645 C.ar    1  LIG1       -0.0359
      8 C           2.9626    0.2083    0.5958 C.ar    1  LIG1       -0.0427
      9 C           5.9036   -3.4708    2.6813 C.ar    1  LIG1        0.0274
     10 C           4.1465   -2.0605    2.2484 C.ar    1  LIG1        0.0353
     11 C           3.3201    1.7237   -1.1812 C.ar    1  LIG1        0.0354
     12 C           6.1052   -1.8731    0.9095 C.ar    1  LIG1       -0.0146
     13 C           4.2522   -0.3355    0.4023 C.ar    1  LIG1        0.0102
     14 C           4.8033   -1.4069    1.1883 C.ar    1  LIG1        0.0094
     15 C           1.1682    1.7978    0.0027 C.ar    1  LIG1       -0.0166
     16 C           2.4866    1.2445   -0.1973 C.ar    1  LIG1        0.0007
     17 C           5.0149    0.2401   -0.6395 C.ar    1  LIG1        0.0709
     18 C          -1.3795    2.8671    0.3887 C.ar    1  LIG1        0.0713
     19 N           4.6582   -3.0696    2.9938 N.ar    1  LIG1       -0.2640
     20 N           4.5600    1.2444   -1.4119 N.ar    1  LIG1       -0.2555
     21 O          -2.6224    3.3882    0.5766 O.3     1  LIG1       -0.3609
     22 H           7.8407   -1.6287   -0.3607 H       1  LIG1        0.0630
     23 H           0.3191   -0.0523    0.7379 H       1  LIG1        0.0630
     24 H           1.7101    3.7769   -0.6861 H       1  LIG1        0.0630
     25 H           6.8935    0.1830   -1.6774 H       1  LIG1        0.0646
     26 H          -1.9276    0.8963    1.0766 H       1  LIG1        0.0650
     27 H          -0.5402    4.7153   -0.3437 H       1  LIG1        0.0650
     28 H           7.6584   -3.2903    1.4682 H       1  LIG1        0.0645
     29 H           2.3133   -0.1802    1.3776 H       1  LIG1        0.0637
     30 H           6.2973   -4.2796    3.2878 H       1  LIG1        0.0840
     31 H           3.1412   -1.7845    2.5517 H       1  LIG1        0.0846
     32 H           3.0198    2.5320   -1.8415 H       1  LIG1        0.0846
     33 H          -2.6365    4.3250    0.3229 H       1  LIG1        0.2182
@<TRIPOS>BOND
     1     1     4   ar
     2     1    12   ar
     3     2     5   ar
     4     2    15   ar
     5     3     6   ar
     6     3    15   ar
     7     4    17   ar
     8     5    18   ar
     9     6    18   ar
    10     7     9   ar
    11     7    12   ar
    12     8    13   ar
    13     8    16   ar
    14     9    19   ar
    15    10    14   ar
    16    10    19   ar
    17    11    16   ar
    18    11    20   ar
    19    12    14   ar
    20    13    14   ar
    21    13    17   ar
    22    15    16    1
    23    17    20   ar
    24    18    21    1
    25     1    22    1
    26     2    23    1
    27     3    24    1
    28     4    25    1
    29     5    26    1
    30     6    27    1
    31     7    28    1
    32     8    29    1
    33     9    30    1
    34    10    31    1
    35    11    32    1
    36    21    33    1
