@<TRIPOS>MOLECULE
DB03159
 43 46 0 0 0
SMALL
USER_CHARGES

@<TRIPOS>ATOM
      1 C          -1.3162    2.7697    0.4510 C.ar    1  LIG1        0.0000
      2 C          -1.1383    1.4031    0.3327 C.ar    1  LIG1        0.0000
      3 C          -0.2321    3.6241    0.3606 C.ar    1  LIG1        0.0000
      4 C           4.6530    1.2025   -1.4110 C.ar    1  LIG1        0.0000
      5 C           0.1235    0.8845    0.1231 C.ar    1  LIG1        0.0000
      6 C           1.0349    3.1162    0.1569 C.ar    1  LIG1        0.0000
      7 C           3.3873    1.7135   -1.1996 C.ar    1  LIG1        0.0000
      8 C           5.1287    0.1685   -0.6290 C.ar    1  LIG1        0.0000
      9 C           6.0415   -4.4979    4.4567 C.ar    1  LIG1        0.0000
     10 C           5.3555   -3.3302    4.2930 C.ar    1  LIG1        0.0000
     11 C           6.5648   -4.5632    2.0961 C.ar    1  LIG1        0.0000
     12 C           5.5790   -2.5211    0.7682 C.ar    1  LIG1        0.0000
     13 C           5.8648   -3.3696    1.9250 C.ar    1  LIG1        0.0000
     14 C           1.2193    1.7405    0.0313 C.ar    1  LIG1        0.0000
     15 C           2.5780    1.1890   -0.1935 C.ar    1  LIG1        0.0000
     16 C           4.3323   -0.3688    0.3826 C.ar    1  LIG1        0.0000
     17 C           6.6528   -5.1275    3.3645 C.ar    1  LIG1        0.0000
     18 C           5.2539   -2.7465    3.0326 C.ar    1  LIG1        0.0000
     19 C           3.0471    0.1397    0.5989 C.ar    1  LIG1        0.0000
     20 C           4.8424   -1.4756    1.2192 C.ar    1  LIG1        0.0000
     21 C           7.3968   -6.3893    3.5611 C.2     1  LIG1        0.0000
     22 N           4.6429   -1.6025    2.5747 N.ar    1  LIG1        0.0000
     23 N           7.4668   -7.2819    2.5747 N.pl3   1  LIG1        0.0000
     24 N           7.9974   -6.6339    4.7248 N.2     1  LIG1        0.0000
     25 O           2.2647   -0.3770    1.5809 O.3     1  LIG1        0.0000
     26 H          -2.3054    3.1713    0.6142 H       1  LIG1        0.0000
     27 H          -1.9882    0.7407    0.4041 H       1  LIG1        0.0000
     28 H          -0.3768    4.6903    0.4534 H       1  LIG1        0.0000
     29 H           5.2745    1.6143   -2.1924 H       1  LIG1        0.0000
     30 H           0.2613   -0.1826    0.0303 H       1  LIG1        0.0000
     31 H           1.8808    3.7840    0.0868 H       1  LIG1        0.0000
     32 H           3.0237    2.5225   -1.8158 H       1  LIG1        0.0000
     33 H           6.1196   -0.2251   -0.8009 H       1  LIG1        0.0000
     34 H           6.1140   -4.9420    5.4385 H       1  LIG1        0.0000
     35 H           4.8888   -2.8568    5.1442 H       1  LIG1        0.0000
     36 H           7.0346   -5.0453    1.2515 H       1  LIG1        0.0000
     37 H           5.8943   -2.6942   -0.2501 H       1  LIG1        0.0000
     38 H           4.1453   -0.9781    3.1255 H       1  LIG1        0.0000
     39 H           7.9552   -8.1101    2.7037 H       1  LIG1        0.0000
     40 H           7.0296   -7.1038    1.7274 H       1  LIG1        0.0000
     41 H           7.9464   -5.9839    5.4430 H       1  LIG1        0.0000
     42 H           8.4858   -7.4620    4.8539 H       1  LIG1        0.0000
     43 H           1.7529   -1.0941    1.1821 H       1  LIG1        0.0000
@<TRIPOS>BOND
     1     1     2   ar
     2     1     3   ar
     3     2     5   ar
     4     3     6   ar
     5     4     7   ar
     6     4     8   ar
     7     5    14   ar
     8     6    14   ar
     9     7    15   ar
    10     8    16   ar
    11     9    10   ar
    12     9    17   ar
    13    10    18   ar
    14    11    13   ar
    15    11    17   ar
    16    12    13   ar
    17    12    20   ar
    18    13    18   ar
    19    14    15    1
    20    15    19   ar
    21    16    19   ar
    22    16    20    1
    23    17    21    1
    24    18    22   ar
    25    19    25    1
    26    20    22   ar
    27    21    23    1
    28    21    24    2
    29     1    26    1
    30     2    27    1
    31     3    28    1
    32     4    29    1
    33     5    30    1
    34     6    31    1
    35     7    32    1
    36     8    33    1
    37     9    34    1
    38    10    35    1
    39    11    36    1
    40    12    37    1
    41    22    38    1
    42    23    39    1
    43    23    40    1
    44    24    41    1
    45    24    42    1
    46    25    43    1
