@<TRIPOS>MOLECULE
DB04716
 39 42 0 0 0
SMALL
USER_CHARGES

@<TRIPOS>ATOM
      1 C           1.5899    0.4819    1.1160 C.ar    1  LIG1       -0.0492
      2 C           0.5092    1.2913    0.9175 C.ar    1  LIG1       -0.0256
      3 C           1.6200    2.4184   -0.8942 C.ar    1  LIG1       -0.0176
      4 C           2.7224    0.6201    0.3086 C.ar    1  LIG1        0.0104
      5 C           2.7383    1.5999   -0.7085 C.ar    1  LIG1       -0.0000
      6 C           3.9285    1.7372   -1.5488 C.ar    1  LIG1        0.0546
      7 C           5.0361    0.8977   -1.3357 C.ar    1  LIG1        0.0125
      8 C           3.8977   -0.2358    0.5004 C.ar    1  LIG1        0.0947
      9 C           5.0153   -0.0753   -0.3145 C.ar    1  LIG1        0.0662
     10 C           0.5181    2.2586   -0.0835 C.ar    1  LIG1        0.1234
     11 C           5.3712   -1.6928    1.1323 C.ar    1  LIG1        0.1042
     12 C           6.1763    1.0537   -2.1666 C.ar    1  LIG1       -0.0382
     13 C           6.1735    1.9880   -3.1347 C.ar    1  LIG1       -0.0035
     14 C           3.9850    2.6976   -2.5871 C.ar    1  LIG1        0.2481
     15 C           7.0838   -2.2368    2.8411 C.3     1  LIG1       -0.0533
     16 C           4.9746   -3.5691    2.7042 C.3     1  LIG1       -0.0533
     17 C           6.7004   -3.7743    0.9093 C.3     1  LIG1       -0.0533
     18 C           6.0301   -2.8140    1.8939 C.3     1  LIG1        0.0179
     19 N           4.1739   -1.2323    1.3634 N.ar    1  LIG1       -0.2347
     20 N           5.9342   -1.0132    0.1096 N.ar    1  LIG1       -0.3004
     21 N           5.0957    2.7979   -3.3428 N.ar    1  LIG1       -0.2879
     22 O           3.0351    3.4338   -2.7931 O.2     1  LIG1       -0.2714
     23 F          -0.5637    3.0483   -0.2609 F       1  LIG1       -0.2069
     24 H           1.5701   -0.2647    1.8962 H       1  LIG1        0.0631
     25 H          -0.3631    1.1803    1.5445 H       1  LIG1        0.0653
     26 H           1.6204    3.1713   -1.6684 H       1  LIG1        0.0660
     27 H           7.0423    0.4247   -2.0226 H       1  LIG1        0.0643
     28 H           7.0454    2.0993   -3.7624 H       1  LIG1        0.0790
     29 H           6.6062   -1.5527    3.5425 H       1  LIG1        0.0240
     30 H           7.5603   -3.0478    3.3919 H       1  LIG1        0.0240
     31 H           7.8356   -1.6988    2.2638 H       1  LIG1        0.0240
     32 H           4.2239   -3.9803    2.0295 H       1  LIG1        0.0240
     33 H           5.4511   -4.3800    3.2551 H       1  LIG1        0.0240
     34 H           4.4970   -2.8850    3.4056 H       1  LIG1        0.0240
     35 H           7.4523   -3.2363    0.3319 H       1  LIG1        0.0240
     36 H           7.1770   -4.5852    1.4602 H       1  LIG1        0.0240
     37 H           5.9497   -4.1854    0.2345 H       1  LIG1        0.0240
     38 H           6.8198   -1.1579   -0.2586 H       1  LIG1        0.1541
     39 H           5.1296    3.4603   -4.0507 H       1  LIG1        0.1554
@<TRIPOS>BOND
     1     1     2   ar
     2     1     4   ar
     3     2    10   ar
     4     3     5   ar
     5     3    10   ar
     6     4     5   ar
     7     4     8   ar
     8     5     6   ar
     9     6     7   ar
    10     6    14   ar
    11     7     9   ar
    12     7    12   ar
    13     8     9   ar
    14     8    19   ar
    15     9    20   ar
    16    10    23    1
    17    11    18    1
    18    11    19   ar
    19    11    20   ar
    20    12    13   ar
    21    13    21   ar
    22    14    21   ar
    23    14    22    2
    24    15    18    1
    25    16    18    1
    26    17    18    1
    27     1    24    1
    28     2    25    1
    29     3    26    1
    30    12    27    1
    31    13    28    1
    32    15    29    1
    33    15    30    1
    34    15    31    1
    35    16    32    1
    36    16    33    1
    37    16    34    1
    38    17    35    1
    39    17    36    1
    40    17    37    1
    41    20    38    1
    42    21    39    1
