@<TRIPOS>MOLECULE
DB07291
 22 23 0 0 0
SMALL
USER_CHARGES

@<TRIPOS>ATOM
      1 C           4.1316    2.2565   -2.2223 C.1     1  LIG1        0.1043
      2 C           5.9029   -2.2237    0.3193 C.ar    1  LIG1       -0.0371
      3 C           4.8337   -1.4980    2.3459 C.ar    1  LIG1       -0.0371
      4 C           6.5228   -3.2435    1.0146 C.ar    1  LIG1       -0.0416
      5 C           5.4511   -2.5230    3.0356 C.ar    1  LIG1       -0.0416
      6 C           2.8770    1.1416   -0.3134 C.ar    1  LIG1        0.0669
      7 C           4.0003    1.3089   -1.1567 C.ar    1  LIG1        0.1094
      8 C           5.0534   -1.3488    0.9831 C.ar    1  LIG1        0.0581
      9 C           6.2975   -3.3937    2.3717 C.ar    1  LIG1        0.0407
     10 C           4.9516    0.3737   -0.7582 C.ar    1  LIG1        0.1274
     11 N           4.2358    3.0081   -3.0676 N.1     1  LIG1       -0.1922
     12 N           3.1386    0.1819    0.5296 N.ar    1  LIG1       -0.1819
     13 N           4.4230   -0.3132    0.2797 N.ar    1  LIG1       -0.1788
     14 N           6.2032    0.1881   -1.3134 N.pl3   1  LIG1       -0.3439
     15 CL          7.0772   -4.6771    3.2427 Cl      1  LIG1       -0.0843
     16 H           6.0785   -2.1073   -0.7399 H       1  LIG1        0.0644
     17 H           4.1737   -0.8184    2.8646 H       1  LIG1        0.0644
     18 H           7.1836   -3.9242    0.4987 H       1  LIG1        0.0639
     19 H           5.2769   -2.6423    4.0947 H       1  LIG1        0.0639
     20 H           1.9607    1.7113   -0.3595 H       1  LIG1        0.0872
     21 H           6.7964   -0.4910   -0.9559 H       1  LIG1        0.1440
     22 H           6.4885    0.7368   -2.0606 H       1  LIG1        0.1440
@<TRIPOS>BOND
     1     1     7    1
     2     1    11    3
     3     2     4   ar
     4     2     8   ar
     5     3     5   ar
     6     3     8   ar
     7     4     9   ar
     8     5     9   ar
     9     6     7   ar
    10     6    12   ar
    11     7    10   ar
    12     8    13    1
    13     9    15    1
    14    10    13   ar
    15    10    14    1
    16    12    13   ar
    17     2    16    1
    18     3    17    1
    19     4    18    1
    20     5    19    1
    21     6    20    1
    22    14    21    1
    23    14    22    1
