@<TRIPOS>MOLECULE
DB07834
 47 50 0 0 0
SMALL
USER_CHARGES

@<TRIPOS>ATOM
      1 C           0.1326    0.8726    0.1356 C.ar    1  LIG1       -0.0536
      2 C           1.0481    3.1092    0.1480 C.ar    1  LIG1       -0.0536
      3 C           5.1312    0.1503   -0.6166 C.ar    1  LIG1       -0.0503
      4 C          -1.1278    1.3860    0.3427 C.ar    1  LIG1       -0.0491
      5 C          -0.2124    3.6253    0.3484 C.ar    1  LIG1       -0.0491
      6 C           4.6590    1.1798   -1.4064 C.ar    1  LIG1       -0.0579
      7 C           3.0567    0.1426    0.6178 C.ar    1  LIG1       -0.0425
      8 C           1.2283    1.7305    0.0369 C.ar    1  LIG1       -0.0180
      9 C           4.3314   -0.3766    0.3991 C.ar    1  LIG1        0.0271
     10 C           2.5856    1.1761   -0.1858 C.ar    1  LIG1       -0.0147
     11 C          -1.3095    2.7668    0.4536 C.ar    1  LIG1        0.0370
     12 C           3.3945    1.6941   -1.1976 C.ar    1  LIG1       -0.0432
     13 C           4.8377   -1.4791    1.2445 C.ar    1  LIG1        0.2021
     14 C           6.0830   -3.0118    2.1072 C.ar    1  LIG1        0.1687
     15 C          -2.6615    3.3189    0.6759 C.2     1  LIG1        0.2429
     16 C          -6.8235    1.6941    2.3766 C.3     1  LIG1       -0.0486
     17 C          -7.5552    2.2662    1.1608 C.3     1  LIG1       -0.0486
     18 C          -6.0749    1.8939    1.0574 C.3     1  LIG1       -0.0257
     19 C           2.8870    2.8170   -2.0650 C.3     1  LIG1       -0.0392
     20 C           7.2346   -3.9390    2.3990 C.3     1  LIG1        0.0027
     21 C          -5.0620    3.0385    0.9862 C.3     1  LIG1        0.0141
     22 N           4.1931   -2.0677    2.2244 N.ar    1  LIG1       -0.1218
     23 N           4.9409   -2.9814    2.7355 N.ar    1  LIG1       -0.1271
     24 N          -3.7203    2.4905    0.7718 N.am    1  LIG1       -0.3111
     25 O          -2.8198    4.5208    0.7674 O.2     1  LIG1       -0.2719
     26 O           6.0452   -2.0705    1.1485 O.2     1  LIG1       -0.2729
     27 H           0.2734   -0.1948    0.0497 H       1  LIG1        0.0629
     28 H           1.8970    3.7725    0.0718 H       1  LIG1        0.0629
     29 H           6.1206   -0.2482   -0.7853 H       1  LIG1        0.0630
     30 H          -1.9758    0.7217    0.4197 H       1  LIG1        0.0631
     31 H          -0.3517    4.6929    0.4344 H       1  LIG1        0.0631
     32 H           5.2810    1.5844   -2.1912 H       1  LIG1        0.0626
     33 H           2.4341   -0.2610    1.4026 H       1  LIG1        0.0637
     34 H          -7.0599    0.6717    2.6713 H       1  LIG1        0.0270
     35 H          -6.5944    2.3780    3.1939 H       1  LIG1        0.0270
     36 H          -7.8076    3.3264    1.1783 H       1  LIG1        0.0270
     37 H          -8.2731    1.6201    0.6557 H       1  LIG1        0.0270
     38 H          -5.8188    1.0032    0.4837 H       1  LIG1        0.0319
     39 H           3.1521    3.7730   -1.6137 H       1  LIG1        0.0280
     40 H           3.3387    2.7445   -3.0544 H       1  LIG1        0.0280
     41 H           1.8031    2.7455   -2.1545 H       1  LIG1        0.0280
     42 H           7.1292   -4.8471    1.8055 H       1  LIG1        0.0318
     43 H           8.1722   -3.4450    2.1441 H       1  LIG1        0.0318
     44 H           7.2352   -4.1953    3.4585 H       1  LIG1        0.0318
     45 H          -5.0805    3.5987    1.9210 H       1  LIG1        0.0469
     46 H          -5.3201    3.7012    0.1602 H       1  LIG1        0.0469
     47 H          -3.5940    1.5316    0.6988 H       1  LIG1        0.1497
@<TRIPOS>BOND
     1     1     4   ar
     2     1     8   ar
     3     2     5   ar
     4     2     8   ar
     5     3     6   ar
     6     3     9   ar
     7     4    11   ar
     8     5    11   ar
     9     6    12   ar
    10     7     9   ar
    11     7    10   ar
    12     8    10    1
    13     9    13    1
    14    10    12   ar
    15    11    15    1
    16    12    19    1
    17    13    22   ar
    18    13    26   ar
    19    14    20    1
    20    14    23   ar
    21    14    26   ar
    22    15    24   am
    23    15    25    2
    24    16    17    1
    25    16    18    1
    26    17    18    1
    27    18    21    1
    28    21    24    1
    29    22    23   ar
    30     1    27    1
    31     2    28    1
    32     3    29    1
    33     4    30    1
    34     5    31    1
    35     6    32    1
    36     7    33    1
    37    16    34    1
    38    16    35    1
    39    17    36    1
    40    17    37    1
    41    18    38    1
    42    19    39    1
    43    19    40    1
    44    19    41    1
    45    20    42    1
    46    20    43    1
    47    20    44    1
    48    21    45    1
    49    21    46    1
    50    24    47    1
