@<TRIPOS>MOLECULE
DB07173
 32 34 0 0 0
SMALL
USER_CHARGES

@<TRIPOS>ATOM
      1 C           2.8994    0.0867    0.7632 C.ar    1  LIG1        0.0142
      2 C           5.8758    1.3138   -2.2642 C.ar    1  LIG1        0.1194
      3 C           3.5521    1.3800   -0.9660 C.ar    1  LIG1        0.0698
      4 C           2.4913    1.1119   -0.0634 C.ar    1  LIG1        0.0415
      5 C           4.5807    0.4990   -0.6557 C.ar    1  LIG1        0.1398
      6 C           3.7826    2.2634   -2.0197 C.ar    1  LIG1        0.1285
      7 C           4.7656   -3.0790    2.5879 C.3     1  LIG1        0.1101
      8 C           4.5086   -1.5899    2.4605 C.3     1  LIG1        0.1256
      9 C           4.2986   -3.5634    1.2194 C.3     1  LIG1        0.0859
     10 C           4.9394   -1.3214    1.0230 C.3     1  LIG1        0.1575
     11 C           4.8589   -4.8974    0.7626 C.3     1  LIG1       -0.0359
     12 N           5.7748    0.4114   -1.2672 N.ar    1  LIG1       -0.2203
     13 N           4.9655    2.2250   -2.6756 N.ar    1  LIG1       -0.2211
     14 N           4.1688   -0.2782    0.3941 N.ar    1  LIG1       -0.2613
     15 N           2.8175    3.2018   -2.4275 N.pl3   1  LIG1       -0.3426
     16 O           4.6973   -2.5367    0.2847 O.3     1  LIG1       -0.3511
     17 O           6.1598   -3.3099    2.7651 O.3     1  LIG1       -0.3875
     18 O           5.2446   -0.8334    3.3995 O.3     1  LIG1       -0.3858
     19 I           0.6543    2.0172    0.0778 I       1  LIG1       -0.0420
     20 H           2.3993   -0.4158    1.5808 H       1  LIG1        0.0805
     21 H           6.8133    1.3091   -2.8098 H       1  LIG1        0.1063
     22 H           4.2300   -3.5361    3.4251 H       1  LIG1        0.0657
     23 H           3.4399   -1.3841    2.6021 H       1  LIG1        0.0675
     24 H           3.2022   -3.6006    1.1955 H       1  LIG1        0.0630
     25 H           5.9929   -1.0416    0.9269 H       1  LIG1        0.0853
     26 H           5.9507   -4.8763    0.7808 H       1  LIG1        0.0258
     27 H           4.5314   -5.1173   -0.2559 H       1  LIG1        0.0258
     28 H           4.5146   -5.6985    1.4204 H       1  LIG1        0.0258
     29 H           1.9201    3.2096   -1.9822 H       1  LIG1        0.1442
     30 H           3.0043    3.7865   -3.2194 H       1  LIG1        0.1442
     31 H           6.2742   -4.2701    2.8412 H       1  LIG1        0.2107
     32 H           5.0246    0.1033    3.2517 H       1  LIG1        0.2108
@<TRIPOS>BOND
     1     1     4   ar
     2     1    14   ar
     3     2    12   ar
     4     2    13   ar
     5     3     4   ar
     6     3     5   ar
     7     3     6   ar
     8     4    19    1
     9     5    12   ar
    10     5    14   ar
    11     6    13   ar
    12     6    15    1
    13     7     8    1
    14     7     9    1
    15     7    17    1
    16     8    10    1
    17     8    18    1
    18     9    11    1
    19     9    16    1
    20    10    14    1
    21    10    16    1
    22     1    20    1
    23     2    21    1
    24     7    22    1
    25     8    23    1
    26     9    24    1
    27    10    25    1
    28    11    26    1
    29    11    27    1
    30    11    28    1
    31    15    29    1
    32    15    30    1
    33    17    31    1
    34    18    32    1
