@<TRIPOS>MOLECULE
DB08054
 39 42 0 0 0
SMALL
USER_CHARGES

@<TRIPOS>ATOM
      1 C          -1.3609    5.8140    0.5162 C.ar    1  LIG1       -0.0432
      2 C          -0.1256    5.1829    0.4855 C.ar    1  LIG1       -0.0513
      3 C           0.0620    1.0525   -0.1924 C.ar    1  LIG1       -0.0505
      4 C          -1.1661    1.7175   -0.1557 C.ar    1  LIG1       -0.0351
      5 C           1.1905    3.1334    0.2231 C.ar    1  LIG1       -0.0433
      6 C          -2.4814    5.0330    0.3182 C.ar    1  LIG1        0.0275
      7 C           5.9544    1.1010   -2.0875 C.ar    1  LIG1        0.1195
      8 C          -0.0449    3.8022    0.2600 C.ar    1  LIG1        0.0008
      9 C           3.5808    1.3183   -0.9170 C.ar    1  LIG1        0.0844
     10 C           1.2419    1.7609   -0.0028 C.ar    1  LIG1        0.0034
     11 C          -1.2469    3.0892    0.0685 C.ar    1  LIG1        0.0702
     12 C           2.5062    1.0817   -0.0396 C.ar    1  LIG1        0.1030
     13 C           4.5429    0.4013   -0.5317 C.ar    1  LIG1        0.1547
     14 C           3.8985    2.1601   -1.9775 C.ar    1  LIG1        0.1297
     15 C           5.8777   -0.8903    1.9954 C.3     1  LIG1       -0.0447
     16 C           4.9234   -2.5786    0.3690 C.3     1  LIG1       -0.0447
     17 C           4.6276   -1.3644    1.2514 C.3     1  LIG1        0.0417
     18 N          -2.4470    3.6989    0.0977 N.ar    1  LIG1       -0.2562
     19 N           5.7600    0.2319   -1.0722 N.ar    1  LIG1       -0.2189
     20 N           5.1110    2.0443   -2.5702 N.ar    1  LIG1       -0.2211
     21 N           2.7579    0.0988    0.8319 N.ar    1  LIG1       -0.1784
     22 N           4.0034   -0.2956    0.5083 N.ar    1  LIG1       -0.2041
     23 N           2.9863    3.1243   -2.4433 N.pl3   1  LIG1       -0.3425
     24 H          -1.4423    6.8807    0.6885 H       1  LIG1        0.0639
     25 H           0.7744    5.7744    0.6373 H       1  LIG1        0.0630
     26 H           0.0756   -0.0204   -0.3693 H       1  LIG1        0.0630
     27 H          -2.0767    1.1403   -0.3057 H       1  LIG1        0.0646
     28 H           2.1126    3.6937    0.3715 H       1  LIG1        0.0637
     29 H          -3.4739    5.4714    0.3314 H       1  LIG1        0.0840
     30 H           6.9157    1.0334   -2.5858 H       1  LIG1        0.1063
     31 H           6.6590   -0.5512    1.3068 H       1  LIG1        0.0250
     32 H           6.2962   -1.7018    2.6001 H       1  LIG1        0.0250
     33 H           5.6401   -0.0575    2.6666 H       1  LIG1        0.0250
     34 H           5.6468   -2.3253   -0.4138 H       1  LIG1        0.0250
     35 H           4.0084   -2.9312   -0.1190 H       1  LIG1        0.0250
     36 H           5.3354   -3.4130    0.9464 H       1  LIG1        0.0250
     37 H           3.9011   -1.6841    2.0097 H       1  LIG1        0.0521
     38 H           2.0732    3.1753   -2.0345 H       1  LIG1        0.1442
     39 H           3.2263    3.6838   -3.2391 H       1  LIG1        0.1442
@<TRIPOS>BOND
     1     1     2   ar
     2     1     6   ar
     3     2     8   ar
     4     3     4   ar
     5     3    10   ar
     6     4    11   ar
     7     5     8   ar
     8     5    10   ar
     9     6    18   ar
    10     7    19   ar
    11     7    20   ar
    12     8    11   ar
    13     9    12   ar
    14     9    13   ar
    15     9    14   ar
    16    10    12    1
    17    11    18   ar
    18    12    21   ar
    19    13    19   ar
    20    13    22   ar
    21    14    20   ar
    22    14    23    1
    23    15    17    1
    24    16    17    1
    25    17    22    1
    26    21    22   ar
    27     1    24    1
    28     2    25    1
    29     3    26    1
    30     4    27    1
    31     5    28    1
    32     6    29    1
    33     7    30    1
    34    15    31    1
    35    15    32    1
    36    15    33    1
    37    16    34    1
    38    16    35    1
    39    16    36    1
    40    17    37    1
    41    23    38    1
    42    23    39    1
