@<TRIPOS>MOLECULE
DB08053
 43 46 0 0 0
SMALL
USER_CHARGES

@<TRIPOS>ATOM
      1 C          -0.0581    1.3135   -0.1356 C.ar    1  LIG1       -0.0499
      2 C          -1.2424    2.0497   -0.1000 C.ar    1  LIG1       -0.0284
      3 C           1.2111    3.3380    0.2223 C.ar    1  LIG1       -0.0196
      4 C           5.8080    0.9549   -2.0973 C.ar    1  LIG1        0.1195
      5 C           3.4678    1.3463   -0.9048 C.ar    1  LIG1        0.0844
      6 C           1.1687    1.9577    0.0257 C.ar    1  LIG1        0.0054
      7 C          -1.1999    3.4299    0.0968 C.ar    1  LIG1        0.1048
      8 C           0.0268    4.0741    0.2579 C.ar    1  LIG1        0.1054
      9 C           2.3919    1.1969   -0.0100 C.ar    1  LIG1        0.1031
     10 C           4.3756    0.3793   -0.5099 C.ar    1  LIG1        0.1547
     11 C           3.8237    2.1432   -1.9878 C.ar    1  LIG1        0.1297
     12 C           6.2204   -2.5045    1.2579 C.3     1  LIG1       -0.0496
     13 C           4.9853   -2.4451    0.3348 C.3     1  LIG1       -0.0324
     14 C           5.8942   -1.0511    1.6602 C.3     1  LIG1       -0.0324
     15 C           4.4314   -1.3536    1.2742 C.3     1  LIG1        0.0474
     16 C          -2.9898    4.2992    1.3991 C.3     1  LIG1        0.0424
     17 C           0.1784    6.2395   -0.7135 C.3     1  LIG1        0.0424
     18 N           5.5728    0.1222   -1.0603 N.ar    1  LIG1       -0.2189
     19 N           5.0190    1.9386   -2.5915 N.ar    1  LIG1       -0.2211
     20 N           2.5930    0.2194    0.8807 N.ar    1  LIG1       -0.1783
     21 N           3.8071   -0.2595    0.5517 N.ar    1  LIG1       -0.2035
     22 N           2.9689    3.1536   -2.4635 N.pl3   1  LIG1       -0.3425
     23 O          -2.3633    4.1378    0.1280 O.3     1  LIG1       -0.3466
     24 O           0.0807    5.4216    0.4508 O.3     1  LIG1       -0.3465
     25 H          -0.1077    0.2381   -0.2891 H       1  LIG1        0.0631
     26 H          -2.1949    1.5414   -0.2254 H       1  LIG1        0.0651
     27 H           2.1630    3.8495    0.3496 H       1  LIG1        0.0658
     28 H           6.7572    0.8182   -2.6043 H       1  LIG1        0.1063
     29 H           6.1368   -3.2285    2.0767 H       1  LIG1        0.0268
     30 H           7.1799   -2.6525    0.7555 H       1  LIG1        0.0268
     31 H           5.2071   -2.0818   -0.6759 H       1  LIG1        0.0286
     32 H           4.4094   -3.3712    0.2547 H       1  LIG1        0.0286
     33 H           6.0894   -0.7939    2.7050 H       1  LIG1        0.0286
     34 H           6.3697   -0.2987    1.0195 H       1  LIG1        0.0286
     35 H           3.7947   -1.7119    2.0877 H       1  LIG1        0.0527
     36 H          -3.9069    4.8820    1.2827 H       1  LIG1        0.0535
     37 H          -2.3054    4.8095    2.0815 H       1  LIG1        0.0535
     38 H          -3.2357    3.3139    1.8020 H       1  LIG1        0.0535
     39 H           0.2131    7.2913   -0.4189 H       1  LIG1        0.0535
     40 H          -0.6843    6.0595   -1.3599 H       1  LIG1        0.0535
     41 H           1.0941    5.9838   -1.2517 H       1  LIG1        0.0535
     42 H           2.0665    3.2719   -2.0446 H       1  LIG1        0.1442
     43 H           3.2329    3.6793   -3.2746 H       1  LIG1        0.1442
@<TRIPOS>BOND
     1     1     2   ar
     2     1     6   ar
     3     2     7   ar
     4     3     6   ar
     5     3     8   ar
     6     4    18   ar
     7     4    19   ar
     8     5     9   ar
     9     5    10   ar
    10     5    11   ar
    11     6     9    1
    12     7     8   ar
    13     7    23    1
    14     8    24    1
    15     9    20   ar
    16    10    18   ar
    17    10    21   ar
    18    11    19   ar
    19    11    22    1
    20    12    13    1
    21    12    14    1
    22    13    15    1
    23    14    15    1
    24    15    21    1
    25    16    23    1
    26    17    24    1
    27    20    21   ar
    28     1    25    1
    29     2    26    1
    30     3    27    1
    31     4    28    1
    32    12    29    1
    33    12    30    1
    34    13    31    1
    35    13    32    1
    36    14    33    1
    37    14    34    1
    38    15    35    1
    39    16    36    1
    40    16    37    1
    41    16    38    1
    42    17    39    1
    43    17    40    1
    44    17    41    1
    45    22    42    1
    46    22    43    1
