@<TRIPOS>MOLECULE
DB08560
 40 43 0 0 0
SMALL
USER_CHARGES

@<TRIPOS>ATOM
      1 C           6.8223    4.9965   -0.7812 C.ar    1  LIG1       -0.0575
      2 C          -0.3223    3.4983    0.2323 C.ar    1  LIG1       -0.0544
      3 C           5.6837   -2.0312    0.3802 C.ar    1  LIG1       -0.0356
      4 C           4.4816   -1.4970    2.4067 C.ar    1  LIG1       -0.0356
      5 C           8.1939    4.9875   -0.5277 C.ar    1  LIG1       -0.0262
      6 C           6.3554   -3.0548    1.0484 C.ar    1  LIG1       -0.0244
      7 C           5.1533   -2.5207    3.0750 C.ar    1  LIG1       -0.0244
      8 C           6.2149    3.8884   -1.3719 C.ar    1  LIG1       -0.0391
      9 C           1.0509    3.1185    0.2291 C.ar    1  LIG1       -0.0455
     10 C           8.3508    2.7624   -1.4557 C.ar    1  LIG1       -0.0034
     11 C           3.5533    1.3816   -0.9711 C.ar    1  LIG1        0.0105
     12 C          -1.1564    2.4260    0.0038 C.ar    1  LIG1       -0.0241
     13 C           4.7468   -1.2522    1.0593 C.ar    1  LIG1        0.0585
     14 C           6.0902   -3.2996    2.3957 C.ar    1  LIG1        0.1229
     15 C           8.9581    3.8704   -0.8649 C.ar    1  LIG1        0.1246
     16 C           6.9792    2.7714   -1.7092 C.ar    1  LIG1        0.0616
     17 C           2.5199    1.0884   -0.0613 C.ar    1  LIG1        0.0994
     18 C           1.2142    1.7700   -0.0013 C.ar    1  LIG1        0.0391
     19 C           4.5563    0.5011   -0.6468 C.ar    1  LIG1        0.1646
     20 N           2.8369    0.0989    0.7779 N.ar    1  LIG1       -0.1738
     21 N           5.7521    0.4067   -1.2489 N.pl3   1  LIG1       -0.1582
     22 N           4.0809   -0.2375    0.3967 N.ar    1  LIG1       -0.1736
     23 O           5.0938    1.9420   -3.2196 O.2     1  LIG1       -0.4725
     24 O           7.2652    0.8002   -3.3059 O.2     1  LIG1       -0.4725
     25 F           6.7351   -4.2827    3.0374 F       1  LIG1       -0.2069
     26 F          10.2753    3.8622   -0.6216 F       1  LIG1       -0.2069
     27 S          -0.2840    0.9684   -0.2130 S.2     1  LIG1       -0.0957
     28 S           6.1936    1.3378   -2.4705 S.O2    1  LIG1       -0.1345
     29 H           6.2278    5.8665   -0.5186 H       1  LIG1        0.0624
     30 H          -0.6801    4.5068    0.3946 H       1  LIG1        0.0628
     31 H           5.9008   -1.8510   -0.6699 H       1  LIG1        0.0644
     32 H           3.7531   -0.8981    2.9479 H       1  LIG1        0.0644
     33 H           8.6669    5.8502   -0.0679 H       1  LIG1        0.0653
     34 H           7.0854   -3.6610    0.5203 H       1  LIG1        0.0654
     35 H           4.9467   -2.7124    4.1237 H       1  LIG1        0.0654
     36 H           5.1454    3.9058   -1.5642 H       1  LIG1        0.0642
     37 H           1.8719    3.8067    0.3891 H       1  LIG1        0.0635
     38 H           8.9565    1.8979   -1.7145 H       1  LIG1        0.0673
     39 H           3.5651    2.1297   -1.7526 H       1  LIG1        0.0685
     40 H          -2.2360    2.4284   -0.0456 H       1  LIG1        0.0700
@<TRIPOS>BOND
     1     1     5   ar
     2     1     8   ar
     3     2     9   ar
     4     2    12   ar
     5     3     6   ar
     6     3    13   ar
     7     4     7   ar
     8     4    13   ar
     9     5    15   ar
    10     6    14   ar
    11     7    14   ar
    12     8    16   ar
    13     9    18   ar
    14    10    15   ar
    15    10    16   ar
    16    11    17   ar
    17    11    19   ar
    18    12    27   ar
    19    13    22    1
    20    14    25    1
    21    15    26    1
    22    16    28    1
    23    17    18    1
    24    17    20   ar
    25    18    27   ar
    26    19    21    1
    27    19    22   ar
    28    20    22   ar
    29    21    28    1
    30    23    28    2
    31    24    28    2
    32     1    29    1
    33     2    30    1
    34     3    31    1
    35     4    32    1
    36     5    33    1
    37     6    34    1
    38     7    35    1
    39     8    36    1
    40     9    37    1
    41    10    38    1
    42    11    39    1
    43    12    40    1
