@<TRIPOS>MOLECULE
DB08694
 33 36 0 0 0
SMALL
USER_CHARGES

@<TRIPOS>ATOM
      1 C           5.0631    2.1517   -2.6555 C.ar    1  LIG1       -0.0129
      2 C           1.1564    3.1149    0.2531 C.ar    1  LIG1       -0.0171
      3 C           5.9850    1.2121   -2.2224 C.ar    1  LIG1        0.0317
      4 C          -0.1178    3.6425    0.2997 C.ar    1  LIG1        0.0328
      5 C           3.5923    1.3378   -0.9449 C.ar    1  LIG1        0.0569
      6 C           2.5091    1.1022   -0.0630 C.ar    1  LIG1        0.0358
      7 C           3.8337    2.2246   -2.0077 C.ar    1  LIG1        0.0843
      8 C           1.2326    1.7588    0.0097 C.ar    1  LIG1        0.0783
      9 C           2.8802    0.0800    0.7804 C.ar    1  LIG1        0.0538
     10 C           4.6041    0.4387   -0.6069 C.ar    1  LIG1        0.1415
     11 C          -1.0321    1.6013   -0.1066 C.ar    1  LIG1        0.2114
     12 C           2.2508   -0.5915    1.8483 C.ar    1  LIG1       -0.0209
     13 C           2.9324   -1.5684    2.4620 C.ar    1  LIG1        0.0323
     14 C           4.8166   -1.3736    1.1502 C.ar    1  LIG1        0.1884
     15 N           5.8078    0.3363   -1.2086 N.ar    1  LIG1       -0.2397
     16 N          -1.2384    2.9120    0.1235 N.ar    1  LIG1       -0.2238
     17 N           0.1547    0.9687   -0.1755 N.ar    1  LIG1       -0.2151
     18 N           4.2044   -1.9770    2.1378 N.ar    1  LIG1       -0.2270
     19 N           4.1599   -0.3317    0.4546 N.ar    1  LIG1       -0.2249
     20 N          -2.1832    0.8054   -0.2949 N.pl3   1  LIG1       -0.3273
     21 N           6.0853   -1.7150    0.7574 N.pl3   1  LIG1       -0.3303
     22 O           2.9054    3.1430   -2.4151 O.3     1  LIG1       -0.3600
     23 H           5.2993    2.8143   -3.4820 H       1  LIG1        0.0667
     24 H           2.0303    3.7374    0.4001 H       1  LIG1        0.0662
     25 H           6.9519    1.1377   -2.7134 H       1  LIG1        0.0841
     26 H          -0.2779    4.6993    0.4844 H       1  LIG1        0.0842
     27 H           1.2478   -0.3258    2.1627 H       1  LIG1        0.0659
     28 H           2.4735   -2.1028    3.2874 H       1  LIG1        0.0841
     29 H          -3.0850    1.2259   -0.2044 H       1  LIG1        0.1457
     30 H          -2.0773   -0.1800   -0.4215 H       1  LIG1        0.1457
     31 H           6.5477   -2.4466    1.2451 H       1  LIG1        0.1454
     32 H           6.4932   -1.2175    0.0004 H       1  LIG1        0.1454
     33 H           3.2552    3.6585   -3.1563 H       1  LIG1        0.2182
@<TRIPOS>BOND
     1     1     3   ar
     2     1     7   ar
     3     2     4   ar
     4     2     8   ar
     5     3    15   ar
     6     4    16   ar
     7     5     6   ar
     8     5     7   ar
     9     5    10   ar
    10     6     8    1
    11     6     9   ar
    12     7    22    1
    13     8    17   ar
    14     9    12   ar
    15     9    19   ar
    16    10    15   ar
    17    10    19   ar
    18    11    16   ar
    19    11    17   ar
    20    11    20    1
    21    12    13   ar
    22    13    18   ar
    23    14    18   ar
    24    14    19   ar
    25    14    21    1
    26     1    23    1
    27     2    24    1
    28     3    25    1
    29     4    26    1
    30    12    27    1
    31    13    28    1
    32    20    29    1
    33    20    30    1
    34    21    31    1
    35    21    32    1
    36    22    33    1
