@<TRIPOS>MOLECULE
AO-476/14976017
 28 30 0 0 0
SMALL
USER_CHARGES

@<TRIPOS>ATOM
      1 C           6.2414   -3.3556    2.3666 C.ar    1  LIG1       -0.0900
      2 C           6.4714   -3.0911    1.0165 C.ar    1  LIG1       -0.0823
      3 C           5.3061   -2.6017    3.0756 C.ar    1  LIG1       -0.0836
      4 C           5.7661   -2.0728    0.3753 C.ar    1  LIG1       -0.0497
      5 C           4.6009   -1.5833    2.4344 C.ar    1  LIG1       -0.0520
      6 C           2.5340    1.0082    0.0208 C.2     1  LIG1        0.0583
      7 C           5.8479    1.2651   -2.1981 C.3     1  LIG1        0.1269
      8 C           3.5435    1.3321   -0.9106 C.3     1  LIG1        0.1087
      9 C           4.8308   -1.3188    1.0843 C.ar    1  LIG1        0.0089
     10 C           4.5700    0.4534   -0.6021 C.3     1  LIG1        0.1002
     11 C           3.7144    2.2373   -1.9517 C.3     1  LIG1        0.0780
     12 N           2.8830    0.0155    0.8456 N.2     1  LIG1       -0.2693
     13 N           5.7640    0.3590   -1.2070 N.3     1  LIG1       -0.2761
     14 N           4.1262   -0.3012    0.4426 N.pl3   1  LIG1       -0.2291
     15 N           4.9040    2.1440   -2.5560 N.3     1  LIG1       -0.2814
     16 N           2.7429    3.1704   -2.3417 N.3     1  LIG1       -0.3275
     17 N           5.2143    3.0497   -3.6776 N.3     1  LIG1       -0.3425
     18 H           6.7890   -4.1496    2.8659 H       1  LIG1        0.1359
     19 H           7.1986   -3.6788    0.4640 H       1  LIG1        0.1376
     20 H           5.1266   -2.8092    4.1266 H       1  LIG1        0.1373
     21 H           5.9544   -1.8775   -0.6776 H       1  LIG1        0.1454
     22 H           3.8742   -1.0038    2.9987 H       1  LIG1        0.1402
     23 H           1.5561    1.4545    0.1336 H       1  LIG1        0.2685
     24 H           6.7750    1.2792   -2.7613 H       1  LIG1        0.3727
     25 H           1.8480    3.1739   -1.8870 H       1  LIG1        0.3218
     26 H           2.9147    3.7632   -3.1335 H       1  LIG1        0.3057
     27 H           6.2124    3.2256   -3.6603 H       1  LIG1        0.3123
     28 H           4.7245    3.9212   -3.5097 H       1  LIG1        0.3253
@<TRIPOS>BOND
     1     1     2   ar
     2     1     3   ar
     3     2     4   ar
     4     3     5   ar
     5     4     9   ar
     6     5     9   ar
     7     6     8    1
     8     6    12    2
     9     7    13    1
    10     7    15    1
    11     8    10    1
    12     8    11    1
    13     9    14    1
    14    10    13    1
    15    10    14    1
    16    11    15    1
    17    11    16    1
    18    12    14    1
    19    15    17    1
    20     1    18    1
    21     2    19    1
    22     3    20    1
    23     4    21    1
    24     5    22    1
    25     6    23    1
    26     7    24    1
    27    16    25    1
    28    16    26    1
    29    17    27    1
    30    17    28    1
