@<TRIPOS>MOLECULE
AK-087/42718235
 33 35 0 0 0
SMALL
USER_CHARGES

@<TRIPOS>ATOM
      1 C           6.4895    1.5215   -1.7504 C.1     1  LIG1        0.0328
      2 C           6.0925   -3.3445    2.4434 C.ar    1  LIG1       -0.0974
      3 C           5.8522   -3.4539    1.0737 C.ar    1  LIG1       -0.0915
      4 C           5.6725   -2.2093    3.1367 C.ar    1  LIG1       -0.0876
      5 C           1.1782    3.0671   -0.3762 C.ar    1  LIG1       -0.0644
      6 C           0.1702    1.0294    0.4415 C.ar    1  LIG1       -0.0639
      7 C           5.1922   -2.4281    0.3974 C.ar    1  LIG1       -0.0580
      8 C           5.0124   -1.1835    2.4603 C.ar    1  LIG1       -0.0514
      9 C          -0.0601    3.7058   -0.3111 C.ar    1  LIG1       -0.0661
     10 C          -1.0681    1.6681    0.5066 C.ar    1  LIG1       -0.0660
     11 C           3.6142    1.3511   -0.9663 C.ar    1  LIG1       -0.0344
     12 C           1.2934    1.7288    0.0000 C.ar    1  LIG1       -0.0288
     13 C           4.7722   -1.2928    1.0906 C.ar    1  LIG1       -0.0081
     14 C          -1.1833    3.0063    0.1304 C.ar    1  LIG1       -0.0143
     15 C           2.5682    1.0713   -0.0666 C.ar    1  LIG1        0.0107
     16 C           4.6053    0.4626   -0.6278 C.ar    1  LIG1       -0.0000
     17 C           5.9502    0.2614   -1.2022 C.3     1  LIG1        0.1210
     18 N           6.9044    2.5167   -2.1794 N.1     1  LIG1       -0.3857
     19 N           2.8671    0.0822    0.7798 N.ar    1  LIG1       -0.3099
     20 N           4.1119   -0.2672    0.4134 N.ar    1  LIG1       -0.2878
     21 CL         -2.7118    3.7931    0.2098 Cl      1  LIG1       -0.1421
     22 H           6.6049   -4.1437    2.9708 H       1  LIG1        0.1252
     23 H           6.1780   -4.3383    0.5340 H       1  LIG1        0.1295
     24 H           5.8587   -2.1255    4.2035 H       1  LIG1        0.1307
     25 H           2.0440    3.6271   -0.7225 H       1  LIG1        0.1426
     26 H           0.2438   -0.0142    0.7383 H       1  LIG1        0.1434
     27 H           5.0105   -2.5263   -0.6702 H       1  LIG1        0.1267
     28 H           4.6897   -0.3044    3.0130 H       1  LIG1        0.1406
     29 H          -0.1351    4.7489   -0.6075 H       1  LIG1        0.1364
     30 H          -1.9348    1.1101    0.8513 H       1  LIG1        0.1353
     31 H           3.6486    2.0927   -1.7521 H       1  LIG1        0.1381
     32 H           5.9343   -0.4983   -2.0030 H       1  LIG1        0.1659
     33 H           6.6543   -0.1301   -0.4475 H       1  LIG1        0.1790
@<TRIPOS>BOND
     1     1    17    1
     2     1    18    3
     3     2     3   ar
     4     2     4   ar
     5     3     7   ar
     6     4     8   ar
     7     5     9   ar
     8     5    12   ar
     9     6    10   ar
    10     6    12   ar
    11     7    13   ar
    12     8    13   ar
    13     9    14   ar
    14    10    14   ar
    15    11    15   ar
    16    11    16   ar
    17    12    15    1
    18    13    20    1
    19    14    21    1
    20    15    19   ar
    21    16    17    1
    22    16    20   ar
    23    19    20   ar
    24     2    22    1
    25     3    23    1
    26     4    24    1
    27     5    25    1
    28     6    26    1
    29     7    27    1
    30     8    28    1
    31     9    29    1
    32    10    30    1
    33    11    31    1
    34    17    32    1
    35    17    33    1
