@<TRIPOS>MOLECULE
AF-399/14664025
 29 32 0 0 0
SMALL
USER_CHARGES

@<TRIPOS>ATOM
      1 C          -0.0149    1.1038   -0.2087 C.ar    1  LIG1       -0.0900
      2 C           1.1414    3.1840    0.2071 C.ar    1  LIG1       -0.0826
      3 C          -1.2353    1.7790   -0.1932 C.ar    1  LIG1       -0.1019
      4 C          -0.0791    3.8593    0.2225 C.ar    1  LIG1       -0.0948
      5 C           2.6829    0.0978    0.8787 C.ar    1  LIG1        0.0069
      6 C           4.8470    3.1245   -3.5392 C.ar    1  LIG1        0.0700
      7 C           1.1735    1.8062   -0.0084 C.ar    1  LIG1       -0.0713
      8 C           2.4323    1.1093   -0.0252 C.ar    1  LIG1       -0.0400
      9 C           3.5414    1.3004   -0.8759 C.ar    1  LIG1        0.0295
     10 C          -1.2673    3.1568    0.0223 C.ar    1  LIG1       -0.1157
     11 C           4.6103    0.4527   -0.6251 C.ar    1  LIG1        0.0643
     12 C           3.7360    2.1931   -1.9176 C.ar    1  LIG1        0.0813
     13 C           5.9529    1.2666   -2.2608 C.ar    1  LIG1        0.0737
     14 C          -2.5727    3.8780    0.0373 C.3     1  LIG1       -0.0433
     15 N           3.6700    3.7135   -3.4587 N.ar    1  LIG1       -0.2676
     16 N           2.9599    3.1194   -2.4236 N.ar    1  LIG1       -0.2592
     17 N           5.8145    0.4068   -1.2865 N.ar    1  LIG1       -0.3264
     18 N           4.9316    2.1586   -2.5859 N.ar    1  LIG1       -0.2491
     19 S           4.2427   -0.5942    0.6781 S.2     1  LIG1       -0.0465
     20 H          -0.0072    0.0295   -0.3773 H       1  LIG1        0.1226
     21 H           2.0592    3.7458    0.3647 H       1  LIG1        0.1261
     22 H          -2.1565    1.2244   -0.3508 H       1  LIG1        0.1159
     23 H          -0.0954    4.9328    0.3910 H       1  LIG1        0.1192
     24 H           2.0309   -0.2814    1.6544 H       1  LIG1        0.1933
     25 H           5.6374    3.3511   -4.2401 H       1  LIG1        0.2906
     26 H           6.8853    1.3016   -2.8464 H       1  LIG1        0.3317
     27 H          -2.9839    3.9025    1.0539 H       1  LIG1        0.0565
     28 H          -2.4615    4.9108   -0.3179 H       1  LIG1        0.0538
     29 H          -3.3038    3.3925   -0.6221 H       1  LIG1        0.0531
@<TRIPOS>BOND
     1     1     3   ar
     2     1     7   ar
     3     2     4   ar
     4     2     7   ar
     5     3    10   ar
     6     4    10   ar
     7     5     8   ar
     8     5    19   ar
     9     6    15   ar
    10     6    18   ar
    11     7     8    1
    12     8     9   ar
    13     9    11   ar
    14     9    12   ar
    15    10    14    1
    16    11    17   ar
    17    11    19   ar
    18    12    16   ar
    19    12    18   ar
    20    13    17   ar
    21    13    18   ar
    22    15    16   ar
    23     1    20    1
    24     2    21    1
    25     3    22    1
    26     4    23    1
    27     5    24    1
    28     6    25    1
    29    13    26    1
    30    14    27    1
    31    14    28    1
    32    14    29    1
