@<TRIPOS>MOLECULE
AN-919/13952015
 39 41 0 0 0
SMALL
USER_CHARGES

@<TRIPOS>ATOM
      1 C           3.0414    2.8445   -2.1782 C.1     1  LIG1        0.0761
      2 C           5.9455   -3.4140    2.6033 C.ar    1  LIG1       -0.1032
      3 C           5.0276   -2.5202    3.1548 C.ar    1  LIG1       -0.0992
      4 C           6.3485   -3.2694    1.2758 C.ar    1  LIG1       -0.0969
      5 C           4.5126   -1.4819    2.3788 C.ar    1  LIG1       -0.0793
      6 C           5.8335   -2.2311    0.4997 C.ar    1  LIG1       -0.0750
      7 C           0.2241    0.9679   -0.2113 C.ar    1  LIG1       -0.0867
      8 C           1.1690    3.1469    0.2315 C.ar    1  LIG1       -0.0856
      9 C          -1.0550    1.4771    0.0119 C.ar    1  LIG1       -0.0976
     10 C          -0.1102    3.6562    0.4548 C.ar    1  LIG1       -0.0975
     11 C           3.1106    0.2370    0.4775 C.ar    1  LIG1       -0.0191
     12 C           3.4894    1.7734   -1.3337 C.ar    1  LIG1        0.1149
     13 C           1.3362    1.8027   -0.1015 C.ar    1  LIG1       -0.0597
     14 C           4.9155   -1.3373    1.0512 C.ar    1  LIG1       -0.0322
     15 C           2.6630    1.2744   -0.3330 C.ar    1  LIG1       -0.0090
     16 C          -1.2223    2.8213    0.3450 C.ar    1  LIG1       -0.1140
     17 C           4.3825   -0.2626    0.2484 C.ar    1  LIG1       -0.0035
     18 C           4.7445    1.2053   -1.4815 C.ar    1  LIG1        0.0542
     19 C          -2.5899    3.3658    0.5840 C.3     1  LIG1       -0.0414
     20 C           4.9097    1.4355   -4.2079 C.3     1  LIG1        0.0096
     21 N           2.6794    3.7104   -2.8608 N.1     1  LIG1       -0.3601
     22 N           5.2139    0.1965   -0.7137 N.ar    1  LIG1       -0.3613
     23 S           5.8972    1.7660   -2.7341 S.3     1  LIG1       -0.1286
     24 H           6.3477   -4.2213    3.2083 H       1  LIG1        0.1214
     25 H           4.7150   -2.6316    4.1889 H       1  LIG1        0.1199
     26 H           7.0643   -3.9642    0.8461 H       1  LIG1        0.1190
     27 H           3.7979   -0.7931    2.8233 H       1  LIG1        0.1295
     28 H           6.1573   -2.1306   -0.5335 H       1  LIG1        0.1381
     29 H           0.3381   -0.0823   -0.4696 H       1  LIG1        0.1243
     30 H           2.0260    3.8105    0.3202 H       1  LIG1        0.1303
     31 H          -1.9157    0.8192   -0.0747 H       1  LIG1        0.1219
     32 H          -0.2312    4.7049    0.7132 H       1  LIG1        0.1224
     33 H           2.4847   -0.1706    1.2666 H       1  LIG1        0.1497
     34 H          -2.8604    3.2681    1.6426 H       1  LIG1        0.0588
     35 H          -2.6510    4.4260    0.3057 H       1  LIG1        0.0555
     36 H          -3.3404    2.8361   -0.0172 H       1  LIG1        0.0552
     37 H           5.4680    1.7240   -5.1018 H       1  LIG1        0.0797
     38 H           3.9801    2.0085   -4.1679 H       1  LIG1        0.0797
     39 H           4.6711    0.3706   -4.2636 H       1  LIG1        0.0889
@<TRIPOS>BOND
     1     1    12    1
     2     1    21    3
     3     2     3   ar
     4     2     4   ar
     5     3     5   ar
     6     4     6   ar
     7     5    14   ar
     8     6    14   ar
     9     7     9   ar
    10     7    13   ar
    11     8    10   ar
    12     8    13   ar
    13     9    16   ar
    14    10    16   ar
    15    11    15   ar
    16    11    17   ar
    17    12    15   ar
    18    12    18   ar
    19    13    15    1
    20    14    17    1
    21    16    19    1
    22    17    22   ar
    23    18    22   ar
    24    18    23    1
    25    20    23    1
    26     2    24    1
    27     3    25    1
    28     4    26    1
    29     5    27    1
    30     6    28    1
    31     7    29    1
    32     8    30    1
    33     9    31    1
    34    10    32    1
    35    11    33    1
    36    19    34    1
    37    19    35    1
    38    19    36    1
    39    20    37    1
    40    20    38    1
    41    20    39    1
