@<TRIPOS>MOLECULE
AO-081/15246973
 43 46 0 0 0
SMALL
USER_CHARGES

@<TRIPOS>ATOM
      1 C           6.0825   -3.3468    2.4509 C.ar    1  LIG1       -0.1013
      2 C           6.3628   -3.1118    1.1048 C.ar    1  LIG1       -0.0912
      3 C           5.1473   -2.5550    3.1172 C.ar    1  LIG1       -0.0923
      4 C           0.2170    1.2440   -0.7439 C.ar    1  LIG1       -0.0728
      5 C           1.1283    2.8537    0.8103 C.ar    1  LIG1       -0.0738
      6 C          -1.0245    1.8757   -0.6703 C.ar    1  LIG1       -0.0951
      7 C          -0.1132    3.4855    0.8839 C.ar    1  LIG1       -0.0961
      8 C           5.7077   -2.0849    0.4251 C.ar    1  LIG1       -0.0517
      9 C           4.4923   -1.5281    2.4374 C.ar    1  LIG1       -0.0530
     10 C           5.1208    2.1382   -2.6676 C.ar    1  LIG1       -0.0578
     11 C           3.6233    1.3577   -0.9815 C.ar    1  LIG1        0.0228
     12 C           1.2933    1.7330   -0.0036 C.ar    1  LIG1       -0.0261
     13 C          -1.1895    2.9964    0.1436 C.ar    1  LIG1       -0.1145
     14 C           3.8782    2.2367   -2.0414 C.ar    1  LIG1       -0.0798
     15 C           4.7725   -1.2930    1.0914 C.ar    1  LIG1        0.0022
     16 C           2.5760    1.0805   -0.0805 C.ar    1  LIG1        0.0395
     17 C           6.0290    1.1872   -2.2148 C.ar    1  LIG1       -0.0411
     18 C           4.6172    0.4571   -0.6312 C.ar    1  LIG1        0.0519
     19 C          -2.5169    3.6718    0.2205 C.3     1  LIG1       -0.0418
     20 C           2.9005    3.2566   -2.5243 C.3     1  LIG1       -0.0263
     21 C           7.3567    1.0932   -2.8966 C.3     1  LIG1        0.0009
     22 N           2.8720    0.0920    0.7699 N.ar    1  LIG1       -0.2836
     23 N           5.8292    0.3165   -1.1958 N.ar    1  LIG1       -0.3612
     24 N           4.1180   -0.2667    0.4111 N.ar    1  LIG1       -0.2501
     25 H           6.5910   -4.1473    2.9801 H       1  LIG1        0.1196
     26 H           7.0899   -3.7290    0.5855 H       1  LIG1        0.1274
     27 H           4.9286   -2.7395    4.1651 H       1  LIG1        0.1262
     28 H           0.3290    0.3710   -1.3825 H       1  LIG1        0.1324
     29 H           1.9576    3.2471    1.3935 H       1  LIG1        0.1328
     30 H          -1.8576    1.4888   -1.2509 H       1  LIG1        0.1217
     31 H          -0.2336    4.3582    1.5202 H       1  LIG1        0.1219
     32 H           5.9347   -1.9129   -0.6242 H       1  LIG1        0.1372
     33 H           3.7650   -0.9188    2.9687 H       1  LIG1        0.1347
     34 H           5.3745    2.7952   -3.4949 H       1  LIG1        0.1275
     35 H          -3.1214    3.2358    1.0253 H       1  LIG1        0.0585
     36 H          -2.4065    4.7471    0.4120 H       1  LIG1        0.0550
     37 H          -3.0698    3.5725   -0.7228 H       1  LIG1        0.0548
     38 H           2.2638    2.8315   -3.3089 H       1  LIG1        0.0699
     39 H           2.2593    3.6097   -1.7071 H       1  LIG1        0.0641
     40 H           3.4139    4.1375   -2.9300 H       1  LIG1        0.0677
     41 H           8.0801    1.7548   -2.4077 H       1  LIG1        0.0821
     42 H           7.7431    0.0677   -2.8679 H       1  LIG1        0.0790
     43 H           7.2786    1.3773   -3.9526 H       1  LIG1        0.0800
@<TRIPOS>BOND
     1     1     2   ar
     2     1     3   ar
     3     2     8   ar
     4     3     9   ar
     5     4     6   ar
     6     4    12   ar
     7     5     7   ar
     8     5    12   ar
     9     6    13   ar
    10     7    13   ar
    11     8    15   ar
    12     9    15   ar
    13    10    14   ar
    14    10    17   ar
    15    11    14   ar
    16    11    16   ar
    17    11    18   ar
    18    12    16    1
    19    13    19    1
    20    14    20    1
    21    15    24    1
    22    16    22   ar
    23    17    21    1
    24    17    23   ar
    25    18    23   ar
    26    18    24   ar
    27    22    24   ar
    28     1    25    1
    29     2    26    1
    30     3    27    1
    31     4    28    1
    32     5    29    1
    33     6    30    1
    34     7    31    1
    35     8    32    1
    36     9    33    1
    37    10    34    1
    38    19    35    1
    39    19    36    1
    40    19    37    1
    41    20    38    1
    42    20    39    1
    43    20    40    1
    44    21    41    1
    45    21    42    1
    46    21    43    1
