@<TRIPOS>MOLECULE
AI-211/36556006
 39 41 0 0 0
SMALL
USER_CHARGES

@<TRIPOS>ATOM
      1 C           3.0148    2.8918   -2.2178 C.1     1  LIG1        0.0811
      2 C           0.1847    1.0099   -0.2305 C.ar    1  LIG1       -0.0860
      3 C           1.1261    3.1910    0.2096 C.ar    1  LIG1       -0.0848
      4 C           5.0343   -1.1250    2.3905 C.ar    1  LIG1       -0.0653
      5 C           5.2679   -2.4819    0.4051 C.ar    1  LIG1       -0.0610
      6 C          -1.0950    1.5166   -0.0042 C.ar    1  LIG1       -0.0972
      7 C          -0.1536    3.6977    0.4359 C.ar    1  LIG1       -0.0971
      8 C           5.5557   -2.1637    3.1617 C.ar    1  LIG1       -0.0740
      9 C           5.7893   -3.5206    1.1764 C.ar    1  LIG1       -0.0717
     10 C           3.0779    0.2852    0.4493 C.ar    1  LIG1       -0.0198
     11 C           3.4425    1.8248   -1.3621 C.ar    1  LIG1        0.1496
     12 C           1.2953    1.8471   -0.1236 C.ar    1  LIG1       -0.0579
     13 C           4.8903   -1.2842    1.0121 C.ar    1  LIG1       -0.0218
     14 C           2.6226    1.3216   -0.3582 C.ar    1  LIG1       -0.0038
     15 C          -1.2642    2.8604    0.3291 C.ar    1  LIG1       -0.1137
     16 C           5.9333   -3.3615    2.5548 C.ar    1  LIG1       -0.0378
     17 C           4.3508   -0.2090    0.2140 C.ar    1  LIG1        0.0000
     18 C           4.6991    1.2618   -1.5161 C.ar    1  LIG1        0.1194
     19 C          -2.6324    3.4021    0.5713 C.3     1  LIG1       -0.0412
     20 C           6.4204    2.7839   -2.1294 C.3     1  LIG1        0.0419
     21 N           2.6684    3.7560   -2.9106 N.1     1  LIG1       -0.3656
     22 N           5.1760    0.2542   -0.7514 N.ar    1  LIG1       -0.3390
     23 O           5.5461    1.7223   -2.4915 O.3     1  LIG1       -0.3622
     24 BR          6.6408   -4.7689    3.5990 Br      1  LIG1       -0.1064
     25 H           0.3002   -0.0401   -0.4889 H       1  LIG1        0.1252
     26 H           1.9818    3.8564    0.2962 H       1  LIG1        0.1314
     27 H           4.7445   -0.1973    2.8781 H       1  LIG1        0.1420
     28 H           5.1626   -2.6210   -0.6681 H       1  LIG1        0.1503
     29 H          -1.9545    0.8569   -0.0886 H       1  LIG1        0.1220
     30 H          -0.2763    4.7462    0.6946 H       1  LIG1        0.1226
     31 H           5.6621   -2.0233    4.2344 H       1  LIG1        0.1383
     32 H           6.0786   -4.4474    0.6881 H       1  LIG1        0.1373
     33 H           2.4565   -0.1256    1.2406 H       1  LIG1        0.1464
     34 H          -2.9001    3.3040    1.6305 H       1  LIG1        0.0590
     35 H          -2.6964    4.4621    0.2931 H       1  LIG1        0.0557
     36 H          -3.3832    2.8707   -0.0279 H       1  LIG1        0.0552
     37 H           7.0385    3.0569   -2.9881 H       1  LIG1        0.1005
     38 H           7.0539    2.4676   -1.2968 H       1  LIG1        0.1272
     39 H           5.8241    3.6468   -1.8235 H       1  LIG1        0.1005
@<TRIPOS>BOND
     1     1    11    1
     2     1    21    3
     3     2     6   ar
     4     2    12   ar
     5     3     7   ar
     6     3    12   ar
     7     4     8   ar
     8     4    13   ar
     9     5     9   ar
    10     5    13   ar
    11     6    15   ar
    12     7    15   ar
    13     8    16   ar
    14     9    16   ar
    15    10    14   ar
    16    10    17   ar
    17    11    14   ar
    18    11    18   ar
    19    12    14    1
    20    13    17    1
    21    15    19    1
    22    16    24    1
    23    17    22   ar
    24    18    22   ar
    25    18    23    1
    26    20    23    1
    27     2    25    1
    28     3    26    1
    29     4    27    1
    30     5    28    1
    31     6    29    1
    32     7    30    1
    33     8    31    1
    34     9    32    1
    35    10    33    1
    36    19    34    1
    37    19    35    1
    38    19    36    1
    39    20    37    1
    40    20    38    1
    41    20    39    1
