@<TRIPOS>MOLECULE
AJ-916/40989368
 36 39 0 0 0
SMALL
USER_CHARGES

@<TRIPOS>ATOM
      1 C           5.4664   -2.1593    3.2180 C.ar    1  LIG1       -0.0824
      2 C           5.8266   -3.3963    2.6835 C.ar    1  LIG1       -0.0849
      3 C          -0.8077    1.2229    0.8024 C.ar    1  LIG1       -0.0859
      4 C           0.4380    1.1201    0.1835 C.ar    1  LIG1       -0.0688
      5 C           5.0318   -1.1356    2.3761 C.ar    1  LIG1       -0.0455
      6 C           5.7524   -3.6096    1.3072 C.ar    1  LIG1       -0.0552
      7 C          -1.4594    2.4549    0.8579 C.ar    1  LIG1       -0.0771
      8 C           0.3805    3.4815   -0.3243 C.ar    1  LIG1       -0.0471
      9 C           3.3024    0.3066    0.2777 C.ar    1  LIG1        0.0125
     10 C           3.3277    1.2557   -0.7026 C.ar    1  LIG1        0.0264
     11 C           1.0322    2.2493   -0.3798 C.ar    1  LIG1       -0.0127
     12 C           4.6107    1.1633   -1.3545 C.ar    1  LIG1        0.0546
     13 C           4.9576   -1.3489    0.9997 C.ar    1  LIG1        0.0289
     14 C           5.3179   -2.5859    0.4651 C.ar    1  LIG1        0.0445
     15 C          -0.8653    3.5842    0.2946 C.ar    1  LIG1       -0.0293
     16 C           2.3094    2.1438   -1.0143 C.ar    1  LIG1        0.0418
     17 C           4.9243    2.0262   -2.4146 C.ar    1  LIG1        0.0429
     18 C           6.1940    2.0542   -3.1827 C.3     1  LIG1        0.0162
     19 N           5.3273    0.1847   -0.7754 N.ar    1  LIG1       -0.2882
     20 N           2.6427    2.9659   -2.0447 N.ar    1  LIG1       -0.2733
     21 N           3.9322    2.9053   -2.7327 N.ar    1  LIG1       -0.2724
     22 N           4.5209   -0.3025    0.1892 N.ar    1  LIG1       -0.2638
     23 CL          5.2454   -2.8986   -1.2338 Cl      1  LIG1       -0.0999
     24 BR         -1.7481    5.2538    0.3715 Br      1  LIG1       -0.1054
     25 H           5.5252   -1.9936    4.2899 H       1  LIG1        0.1410
     26 H           6.1655   -4.1932    3.3392 H       1  LIG1        0.1383
     27 H          -1.2705    0.3438    1.2413 H       1  LIG1        0.1327
     28 H           0.9327    0.1525    0.1471 H       1  LIG1        0.1339
     29 H           4.7544   -0.1773    2.8090 H       1  LIG1        0.1434
     30 H           6.0389   -4.5791    0.9078 H       1  LIG1        0.1472
     31 H          -2.4300    2.5177    1.3440 H       1  LIG1        0.1401
     32 H           0.8450    4.3619   -0.7642 H       1  LIG1        0.1560
     33 H           2.5587    0.0134    1.0078 H       1  LIG1        0.2375
     34 H           6.1382    1.3829   -4.0514 H       1  LIG1        0.0862
     35 H           6.4253    3.0664   -3.5470 H       1  LIG1        0.0810
     36 H           7.0492    1.7428   -2.5640 H       1  LIG1        0.0865
@<TRIPOS>BOND
     1     1     2   ar
     2     1     5   ar
     3     2     6   ar
     4     3     4   ar
     5     3     7   ar
     6     4    11   ar
     7     5    13   ar
     8     6    14   ar
     9     7    15   ar
    10     8    11   ar
    11     8    15   ar
    12     9    10   ar
    13     9    22   ar
    14    10    12   ar
    15    10    16   ar
    16    11    16    1
    17    12    17   ar
    18    12    19   ar
    19    13    14   ar
    20    13    22    1
    21    14    23    1
    22    15    24    1
    23    16    20   ar
    24    17    18    1
    25    17    21   ar
    26    19    22   ar
    27    20    21   ar
    28     1    25    1
    29     2    26    1
    30     3    27    1
    31     4    28    1
    32     5    29    1
    33     6    30    1
    34     7    31    1
    35     8    32    1
    36     9    33    1
    37    18    34    1
    38    18    35    1
    39    18    36    1
