@<TRIPOS>MOLECULE
AO-476/43250023
 37 40 0 0 0
SMALL
USER_CHARGES

@<TRIPOS>ATOM
      1 C           5.7886   -3.5431    2.8306 C.ar    1  LIG1       -0.1027
      2 C           4.9033   -2.5646    3.2826 C.ar    1  LIG1       -0.0954
      3 C           6.2866   -3.4854    1.5289 C.ar    1  LIG1       -0.0993
      4 C           4.5160   -1.5284    2.4330 C.ar    1  LIG1       -0.0721
      5 C           5.8992   -2.4492    0.6792 C.ar    1  LIG1       -0.0788
      6 C           1.5900    2.9030    0.5054 C.ar    1  LIG1       -0.0732
      7 C           0.6671    1.2926   -1.0412 C.ar    1  LIG1       -0.0766
      8 C           0.3275    3.4749    0.6632 C.ar    1  LIG1       -0.0416
      9 C          -0.5953    1.8644   -0.8833 C.ar    1  LIG1       -0.0438
     10 C           3.3742    0.1952    0.3735 C.ar    1  LIG1       -0.0229
     11 C           5.8390    2.3049   -3.2923 C.ar    1  LIG1        0.0456
     12 C           4.0212    1.5983   -1.4737 C.ar    1  LIG1        0.0627
     13 C           1.7597    1.8119   -0.3469 C.ar    1  LIG1       -0.0605
     14 C           5.0139   -1.4707    1.1313 C.ar    1  LIG1       -0.0262
     15 C           3.0750    1.2163   -0.5113 C.ar    1  LIG1       -0.0331
     16 C          -0.7651    2.9556   -0.0311 C.ar    1  LIG1        0.0652
     17 C           4.6128   -0.3978    0.2522 C.ar    1  LIG1        0.0109
     18 C           5.2581    0.9454   -1.5306 C.ar    1  LIG1        0.0569
     19 C           3.7938    2.6153   -2.3976 C.ar    1  LIG1        0.0066
     20 N           6.1649    1.3055   -2.4458 N.ar    1  LIG1       -0.3275
     21 N           4.6893    2.9933   -3.3249 N.ar    1  LIG1       -0.3414
     22 N           5.5397   -0.0424   -0.6700 N.ar    1  LIG1       -0.3281
     23 N           2.5806    3.3372   -2.4262 N.pl3   1  LIG1       -0.3671
     24 F          -1.9774    3.5047    0.1204 F       1  LIG1       -0.2639
     25 H           6.0914   -4.3488    3.4929 H       1  LIG1        0.1223
     26 H           4.5168   -2.6085    4.2966 H       1  LIG1        0.1203
     27 H           6.9770   -4.2461    1.1767 H       1  LIG1        0.1194
     28 H           3.8252   -0.7729    2.8003 H       1  LIG1        0.1434
     29 H           6.2961   -2.4170   -0.3327 H       1  LIG1        0.1291
     30 H           2.4318    3.3193    1.0535 H       1  LIG1        0.1464
     31 H           0.7832    0.4423   -1.7090 H       1  LIG1        0.1424
     32 H           0.1951    4.3245    1.3266 H       1  LIG1        0.1346
     33 H          -1.4465    1.4605   -1.4235 H       1  LIG1        0.1353
     34 H           2.6689   -0.1299    1.1333 H       1  LIG1        0.1462
     35 H           6.5888    2.5778   -4.0247 H       1  LIG1        0.3087
     36 H           1.8476    3.0816   -1.7972 H       1  LIG1        0.2809
     37 H           2.4419    4.0266   -3.1361 H       1  LIG1        0.2772
@<TRIPOS>BOND
     1     1     2   ar
     2     1     3   ar
     3     2     4   ar
     4     3     5   ar
     5     4    14   ar
     6     5    14   ar
     7     6     8   ar
     8     6    13   ar
     9     7     9   ar
    10     7    13   ar
    11     8    16   ar
    12     9    16   ar
    13    10    15   ar
    14    10    17   ar
    15    11    20   ar
    16    11    21   ar
    17    12    15   ar
    18    12    18   ar
    19    12    19   ar
    20    13    15    1
    21    14    17    1
    22    16    24    1
    23    17    22   ar
    24    18    20   ar
    25    18    22   ar
    26    19    21   ar
    27    19    23    1
    28     1    25    1
    29     2    26    1
    30     3    27    1
    31     4    28    1
    32     5    29    1
    33     6    30    1
    34     7    31    1
    35     8    32    1
    36     9    33    1
    37    10    34    1
    38    11    35    1
    39    23    36    1
    40    23    37    1
