@<TRIPOS>MOLECULE
AJ-916/12583063
 36 39 0 0 0
SMALL
USER_CHARGES

@<TRIPOS>ATOM
      1 C          -1.0801    1.7444    0.2408 C.ar    1  LIG1       -0.1008
      2 C           5.4450   -2.1821    3.2076 C.ar    1  LIG1       -0.0850
      3 C           5.7921   -3.5766    1.2654 C.ar    1  LIG1       -0.0883
      4 C           5.0217   -1.1395    2.3834 C.ar    1  LIG1       -0.0487
      5 C           5.3688   -2.5340    0.4411 C.ar    1  LIG1       -0.0548
      6 C           0.0830    1.2662   -0.4291 C.ar    1  LIG1       -0.0807
      7 C           3.3324    0.3191    0.2238 C.ar    1  LIG1        0.0139
      8 C          -0.9425    3.0538    0.6457 C.ar    1  LIG1       -0.0445
      9 C           3.3776    1.2678   -0.7562 C.ar    1  LIG1        0.0312
     10 C           5.8302   -3.4007    2.6486 C.ar    1  LIG1       -0.1085
     11 C           4.6824    1.1919   -1.3655 C.ar    1  LIG1        0.0518
     12 C           4.9836   -1.3155    1.0002 C.ar    1  LIG1       -0.0002
     13 C           2.3585    2.1423   -1.1021 C.ar    1  LIG1        0.0488
     14 C           1.0653    2.2286   -0.5109 C.ar    1  LIG1        0.0197
     15 C           5.0193    2.0581   -2.4156 C.ar    1  LIG1        0.0434
     16 C           6.2829   -4.5154    3.5298 C.3     1  LIG1       -0.0400
     17 C           6.3123    2.1001   -3.1436 C.3     1  LIG1        0.0163
     18 N           5.3923    0.2232   -0.7621 N.ar    1  LIG1       -0.2955
     19 N           2.7147    2.9681   -2.1219 N.ar    1  LIG1       -0.2660
     20 N           4.0268    2.9240   -2.7670 N.ar    1  LIG1       -0.2690
     21 N           4.5611   -0.2740    0.1760 N.ar    1  LIG1       -0.2712
     22 S           0.5841    3.7014    0.2183 S.2     1  LIG1       -0.1191
     23 H          -1.9727    1.1584    0.4165 H       1  LIG1        0.1195
     24 H           5.4717   -2.0369    4.2842 H       1  LIG1        0.1339
     25 H           6.0908   -4.5224    0.8212 H       1  LIG1        0.1345
     26 H           4.7248   -0.1945    2.8318 H       1  LIG1        0.1481
     27 H           5.3445   -2.6853   -0.6353 H       1  LIG1        0.1351
     28 H           0.1853    0.2650   -0.8295 H       1  LIG1        0.1370
     29 H           2.5694    0.0168    0.9295 H       1  LIG1        0.2382
     30 H          -1.6655    3.6613    1.1716 H       1  LIG1        0.1722
     31 H           5.4303   -5.1392    3.8252 H       1  LIG1        0.0606
     32 H           7.0194   -5.1513    3.0217 H       1  LIG1        0.0569
     33 H           6.7660   -4.1338    4.4388 H       1  LIG1        0.0569
     34 H           6.2909    1.4280   -4.0133 H       1  LIG1        0.0864
     35 H           6.5436    3.1147   -3.5009 H       1  LIG1        0.0866
     36 H           7.1508    1.7981   -2.4983 H       1  LIG1        0.0817
@<TRIPOS>BOND
     1     1     6   ar
     2     1     8   ar
     3     2     4   ar
     4     2    10   ar
     5     3     5   ar
     6     3    10   ar
     7     4    12   ar
     8     5    12   ar
     9     6    14   ar
    10     7     9   ar
    11     7    21   ar
    12     8    22   ar
    13     9    11   ar
    14     9    13   ar
    15    10    16    1
    16    11    15   ar
    17    11    18   ar
    18    12    21    1
    19    13    14    1
    20    13    19   ar
    21    14    22   ar
    22    15    17    1
    23    15    20   ar
    24    18    21   ar
    25    19    20   ar
    26     1    23    1
    27     2    24    1
    28     3    25    1
    29     4    26    1
    30     5    27    1
    31     6    28    1
    32     7    29    1
    33     8    30    1
    34    16    31    1
    35    16    32    1
    36    16    33    1
    37    17    34    1
    38    17    35    1
    39    17    36    1
