@<TRIPOS>MOLECULE
AJ-916/12583056
 33 36 0 0 0
SMALL
USER_CHARGES

@<TRIPOS>ATOM
      1 C          -1.0737    1.7610    0.2600 C.ar    1  LIG1       -0.1004
      2 C           5.0281   -1.1368    2.3814 C.ar    1  LIG1       -0.0435
      3 C           5.3625   -2.5377    0.4417 C.ar    1  LIG1       -0.0373
      4 C           5.4511   -2.1785    3.2067 C.ar    1  LIG1       -0.0570
      5 C           5.7857   -3.5795    1.2671 C.ar    1  LIG1       -0.0536
      6 C           0.0850    1.2779   -0.4141 C.ar    1  LIG1       -0.0805
      7 C           3.3343    0.3218    0.2264 C.ar    1  LIG1        0.0149
      8 C          -0.9301    3.0708    0.6616 C.ar    1  LIG1       -0.0441
      9 C           3.3781    1.2684   -0.7556 C.ar    1  LIG1        0.0327
     10 C           4.6800    1.1872   -1.3705 C.ar    1  LIG1        0.0533
     11 C           4.9837   -1.3164    0.9989 C.ar    1  LIG1        0.0068
     12 C           5.8300   -3.4000    2.6496 C.ar    1  LIG1       -0.0044
     13 C           2.3603    2.1454   -1.0988 C.ar    1  LIG1        0.0497
     14 C           1.0699    2.2370   -0.5021 C.ar    1  LIG1        0.0199
     15 C           5.0150    2.0503   -2.4238 C.ar    1  LIG1        0.0445
     16 C           6.3049    2.0867   -3.1575 C.3     1  LIG1        0.0167
     17 N           5.3895    0.2174   -0.7683 N.ar    1  LIG1       -0.2945
     18 N           2.7146    2.9681   -2.1218 N.ar    1  LIG1       -0.2650
     19 N           4.0237    2.9186   -2.7726 N.ar    1  LIG1       -0.2679
     20 N           4.5608   -0.2752    0.1744 N.ar    1  LIG1       -0.2691
     21 S           0.5966    3.7127    0.2263 S.2     1  LIG1       -0.1190
     22 CL          6.3544   -4.6842    3.6680 Cl      1  LIG1       -0.1325
     23 H          -1.9673    1.1782    0.4407 H       1  LIG1        0.1198
     24 H           4.7358   -0.1900    2.8292 H       1  LIG1        0.1457
     25 H           5.3330   -2.6909   -0.6344 H       1  LIG1        0.1587
     26 H           5.4804   -2.0250    4.2825 H       1  LIG1        0.1504
     27 H           6.0777   -4.5260    0.8190 H       1  LIG1        0.1499
     28 H           0.1824    0.2756   -0.8129 H       1  LIG1        0.1375
     29 H           2.5734    0.0233    0.9361 H       1  LIG1        0.2398
     30 H          -1.6489    3.6816    1.1894 H       1  LIG1        0.1728
     31 H           6.2776    1.4129   -4.0258 H       1  LIG1        0.0868
     32 H           6.5379    3.0999   -3.5179 H       1  LIG1        0.0869
     33 H           7.1453    1.7834   -2.5153 H       1  LIG1        0.0821
@<TRIPOS>BOND
     1     1     6   ar
     2     1     8   ar
     3     2     4   ar
     4     2    11   ar
     5     3     5   ar
     6     3    11   ar
     7     4    12   ar
     8     5    12   ar
     9     6    14   ar
    10     7     9   ar
    11     7    20   ar
    12     8    21   ar
    13     9    10   ar
    14     9    13   ar
    15    10    15   ar
    16    10    17   ar
    17    11    20    1
    18    12    22    1
    19    13    14    1
    20    13    18   ar
    21    14    21   ar
    22    15    16    1
    23    15    19   ar
    24    17    20   ar
    25    18    19   ar
    26     1    23    1
    27     2    24    1
    28     3    25    1
    29     4    26    1
    30     5    27    1
    31     6    28    1
    32     7    29    1
    33     8    30    1
    34    16    31    1
    35    16    32    1
    36    16    33    1
