@<TRIPOS>MOLECULE
AS-938/12583061
 42 45 0 0 0
SMALL
USER_CHARGES

@<TRIPOS>ATOM
      1 C           0.4693    1.1808    0.0990 C.ar    1  LIG1       -0.0704
      2 C           0.4446    3.5342   -0.4469 C.ar    1  LIG1       -0.0778
      3 C          -0.7837    1.3066    0.6988 C.ar    1  LIG1       -0.0933
      4 C          -0.8084    3.6601    0.1530 C.ar    1  LIG1       -0.0980
      5 C           4.8815   -2.4440    3.1559 C.ar    1  LIG1       -0.0887
      6 C           6.2651   -3.3170    1.3781 C.ar    1  LIG1       -0.0853
      7 C           4.4664   -1.4052    2.3227 C.ar    1  LIG1       -0.0551
      8 C           5.8499   -2.2782    0.5449 C.ar    1  LIG1       -0.0489
      9 C           3.3234    0.3387    0.2461 C.ar    1  LIG1        0.0115
     10 C           3.3724    1.2717   -0.7486 C.ar    1  LIG1        0.0252
     11 C           1.0835    2.2945   -0.4738 C.ar    1  LIG1       -0.0234
     12 C          -1.4226    2.5463    0.7258 C.ar    1  LIG1       -0.1142
     13 C           5.7810   -3.3998    2.6837 C.ar    1  LIG1       -0.1088
     14 C           4.6633    1.1555   -1.3809 C.ar    1  LIG1        0.0482
     15 C           4.9505   -1.3223    1.0173 C.ar    1  LIG1       -0.0008
     16 C           2.3681    2.1654   -1.0885 C.ar    1  LIG1        0.0375
     17 C           5.0008    1.9981   -2.4500 C.ar    1  LIG1        0.0404
     18 C          -2.7622    2.6811    1.3673 C.3     1  LIG1       -0.0415
     19 C           6.2249   -4.5105    3.5744 C.3     1  LIG1       -0.0401
     20 C           6.2813    2.0005   -3.2006 C.3     1  LIG1        0.0147
     21 N           5.3613    0.1788   -0.7764 N.ar    1  LIG1       -0.2978
     22 N           2.7245    2.9675   -2.1270 N.ar    1  LIG1       -0.2760
     23 N           4.0227    2.8824   -2.7958 N.ar    1  LIG1       -0.2746
     24 N           4.5364   -0.2844    0.1843 N.ar    1  LIG1       -0.2728
     25 H           0.9548    0.2078    0.0865 H       1  LIG1        0.1399
     26 H           0.9102    4.4115   -0.8896 H       1  LIG1        0.1247
     27 H          -1.2542    0.4339    1.1436 H       1  LIG1        0.1230
     28 H          -1.2993    4.6297    0.1690 H       1  LIG1        0.1206
     29 H           4.4996   -2.5013    4.1717 H       1  LIG1        0.1340
     30 H           6.9662   -4.0571    1.0017 H       1  LIG1        0.1337
     31 H           3.7655   -0.6661    2.7036 H       1  LIG1        0.1345
     32 H           6.2358   -2.2260   -0.4703 H       1  LIG1        0.1477
     33 H           2.5665    0.0650    0.9702 H       1  LIG1        0.2378
     34 H          -2.6534    2.9289    2.4303 H       1  LIG1        0.0586
     35 H          -3.3573    3.4678    0.8857 H       1  LIG1        0.0555
     36 H          -3.3391    1.7507    1.2841 H       1  LIG1        0.0548
     37 H           5.5532   -5.3719    3.4746 H       1  LIG1        0.0606
     38 H           7.2448   -4.8344    3.3295 H       1  LIG1        0.0569
     39 H           6.2352   -4.1974    4.6267 H       1  LIG1        0.0567
     40 H           6.2303    1.3160   -4.0593 H       1  LIG1        0.0850
     41 H           6.5284    3.0043   -3.5775 H       1  LIG1        0.0855
     42 H           7.1244    1.6901   -2.5651 H       1  LIG1        0.0805
@<TRIPOS>BOND
     1     1     3   ar
     2     1    11   ar
     3     2     4   ar
     4     2    11   ar
     5     3    12   ar
     6     4    12   ar
     7     5     7   ar
     8     5    13   ar
     9     6     8   ar
    10     6    13   ar
    11     7    15   ar
    12     8    15   ar
    13     9    10   ar
    14     9    24   ar
    15    10    14   ar
    16    10    16   ar
    17    11    16    1
    18    12    18    1
    19    13    19    1
    20    14    17   ar
    21    14    21   ar
    22    15    24    1
    23    16    22   ar
    24    17    20    1
    25    17    23   ar
    26    21    24   ar
    27    22    23   ar
    28     1    25    1
    29     2    26    1
    30     3    27    1
    31     4    28    1
    32     5    29    1
    33     6    30    1
    34     7    31    1
    35     8    32    1
    36     9    33    1
    37    18    34    1
    38    18    35    1
    39    18    36    1
    40    19    37    1
    41    19    38    1
    42    19    39    1
    43    20    40    1
    44    20    41    1
    45    20    42    1
