@<TRIPOS>MOLECULE
AS-938/12583060
 39 42 0 0 0
SMALL
USER_CHARGES

@<TRIPOS>ATOM
      1 C           0.4693    1.1808    0.0990 C.ar    1  LIG1       -0.0666
      2 C           0.4448    3.5343   -0.4465 C.ar    1  LIG1       -0.0592
      3 C           4.8815   -2.4440    3.1559 C.ar    1  LIG1       -0.0850
      4 C           6.2651   -3.3170    1.3781 C.ar    1  LIG1       -0.0884
      5 C           4.4664   -1.4052    2.3227 C.ar    1  LIG1       -0.0488
      6 C           5.8499   -2.2782    0.5449 C.ar    1  LIG1       -0.0550
      7 C          -0.7836    1.3068    0.6992 C.ar    1  LIG1       -0.0666
      8 C          -0.8081    3.6603    0.1536 C.ar    1  LIG1       -0.0619
      9 C           3.3234    0.3387    0.2461 C.ar    1  LIG1        0.0116
     10 C           3.3724    1.2717   -0.7486 C.ar    1  LIG1        0.0252
     11 C           1.0835    2.2945   -0.4738 C.ar    1  LIG1       -0.0167
     12 C           5.7810   -3.3998    2.6837 C.ar    1  LIG1       -0.1085
     13 C           4.6633    1.1555   -1.3809 C.ar    1  LIG1        0.0493
     14 C           4.9505   -1.3223    1.0173 C.ar    1  LIG1       -0.0005
     15 C          -1.4222    2.5465    0.7264 C.ar    1  LIG1       -0.0116
     16 C           2.3681    2.1654   -1.0885 C.ar    1  LIG1        0.0400
     17 C           5.0008    1.9981   -2.4500 C.ar    1  LIG1        0.0417
     18 C           6.2249   -4.5105    3.5744 C.3     1  LIG1       -0.0399
     19 C           6.2813    2.0005   -3.2006 C.3     1  LIG1        0.0158
     20 N           5.3613    0.1788   -0.7764 N.ar    1  LIG1       -0.2966
     21 N           2.7245    2.9675   -2.1270 N.ar    1  LIG1       -0.2742
     22 N           4.0227    2.8824   -2.7958 N.ar    1  LIG1       -0.2730
     23 N           4.5364   -0.2844    0.1843 N.ar    1  LIG1       -0.2722
     24 CL         -2.9674    2.7016    1.4684 Cl      1  LIG1       -0.1383
     25 H           0.9546    0.2077    0.0859 H       1  LIG1        0.1357
     26 H           0.9110    4.4120   -0.8879 H       1  LIG1        0.1509
     27 H           4.4996   -2.5013    4.1717 H       1  LIG1        0.1339
     28 H           6.9662   -4.0571    1.0017 H       1  LIG1        0.1344
     29 H           3.7655   -0.6661    2.7036 H       1  LIG1        0.1479
     30 H           6.2358   -2.2260   -0.4703 H       1  LIG1        0.1348
     31 H          -1.2500    0.4310    1.1435 H       1  LIG1        0.1368
     32 H          -1.2937    4.6328    0.1686 H       1  LIG1        0.1391
     33 H           2.5665    0.0650    0.9702 H       1  LIG1        0.2379
     34 H           5.5532   -5.3719    3.4746 H       1  LIG1        0.0608
     35 H           7.2448   -4.8344    3.3295 H       1  LIG1        0.0569
     36 H           6.2352   -4.1974    4.6267 H       1  LIG1        0.0570
     37 H           6.2303    1.3160   -4.0593 H       1  LIG1        0.0860
     38 H           6.5284    3.0043   -3.5775 H       1  LIG1        0.0812
     39 H           7.1244    1.6901   -2.5651 H       1  LIG1        0.0863
@<TRIPOS>BOND
     1     1     7   ar
     2     1    11   ar
     3     2     8   ar
     4     2    11   ar
     5     3     5   ar
     6     3    12   ar
     7     4     6   ar
     8     4    12   ar
     9     5    14   ar
    10     6    14   ar
    11     7    15   ar
    12     8    15   ar
    13     9    10   ar
    14     9    23   ar
    15    10    13   ar
    16    10    16   ar
    17    11    16    1
    18    12    18    1
    19    13    17   ar
    20    13    20   ar
    21    14    23    1
    22    15    24    1
    23    16    21   ar
    24    17    19    1
    25    17    22   ar
    26    20    23   ar
    27    21    22   ar
    28     1    25    1
    29     2    26    1
    30     3    27    1
    31     4    28    1
    32     5    29    1
    33     6    30    1
    34     7    31    1
    35     8    32    1
    36     9    33    1
    37    18    34    1
    38    18    35    1
    39    18    36    1
    40    19    37    1
    41    19    38    1
    42    19    39    1
