@<TRIPOS>MOLECULE
AK-777/36504058
 45 49 0 0 0
SMALL
USER_CHARGES

@<TRIPOS>ATOM
      1 C           5.9421   -3.5736    2.7705 C.ar    1  LIG1       -0.1025
      2 C           5.5821   -2.3547    3.3451 C.ar    1  LIG1       -0.0956
      3 C           5.8348   -3.7533    1.3914 C.ar    1  LIG1       -0.0988
      4 C           5.1149   -1.3154    2.5406 C.ar    1  LIG1       -0.0730
      5 C           5.3674   -2.7140    0.5869 C.ar    1  LIG1       -0.0786
      6 C           1.3407    2.8012    0.7394 C.ar    1  LIG1       -0.0749
      7 C           0.4278    1.1903   -0.8125 C.ar    1  LIG1       -0.0756
      8 C           0.0732    3.3592    0.9059 C.ar    1  LIG1       -0.0422
      9 C          -0.8398    1.7482   -0.6461 C.ar    1  LIG1       -0.0425
     10 C           3.2578    0.1032    0.5318 C.ar    1  LIG1       -0.0231
     11 C           3.7010    1.6124   -1.2951 C.ar    1  LIG1        0.0114
     12 C           1.5179    1.7169   -0.1199 C.ar    1  LIG1       -0.0604
     13 C           5.0074   -1.4951    1.1615 C.ar    1  LIG1       -0.0282
     14 C           2.8303    1.1394   -0.2923 C.ar    1  LIG1       -0.0408
     15 C           3.5689    2.6400   -2.2833 C.ar    1  LIG1       -0.0472
     16 C          -1.0171    2.8326    0.2133 C.ar    1  LIG1        0.0662
     17 C           4.5233   -0.4177    0.3281 C.ar    1  LIG1        0.0046
     18 C           4.6918    2.7633   -3.0717 C.ar    1  LIG1        0.0774
     19 C           4.9446    0.9962   -1.3870 C.ar    1  LIG1        0.0573
     20 C           4.9483    3.6609   -4.1538 C.2     1  LIG1        0.0684
     21 C           6.4702    2.5827   -5.9626 C.3     1  LIG1       -0.0526
     22 C           6.3972    4.0486   -6.2753 C.3     1  LIG1       -0.0529
     23 C           6.2865    3.5779   -4.8547 C.3     1  LIG1        0.0095
     24 N           5.4022   -0.0095   -0.6122 N.ar    1  LIG1       -0.3486
     25 N           2.4715    3.4204   -2.4475 N.pl3   1  LIG1       -0.3992
     26 O           4.1637    4.5293   -4.5858 O.2     1  LIG1       -0.4755
     27 F          -2.2343    3.3684    0.3732 F       1  LIG1       -0.2638
     28 S           5.9110    1.6483   -2.6317 S.2     1  LIG1       -0.0463
     29 H           6.3075   -4.3821    3.3969 H       1  LIG1        0.1225
     30 H           5.6672   -2.2140    4.4187 H       1  LIG1        0.1205
     31 H           6.1162   -4.7018    0.9431 H       1  LIG1        0.1200
     32 H           4.8385   -0.3710    3.0037 H       1  LIG1        0.1413
     33 H           5.2898   -2.8686   -0.4866 H       1  LIG1        0.1291
     34 H           2.1806    3.2231    1.2864 H       1  LIG1        0.1436
     35 H           0.5497    0.3452   -1.4859 H       1  LIG1        0.1430
     36 H          -0.0652    4.2036    1.5747 H       1  LIG1        0.1357
     37 H          -1.6892    1.3388   -1.1849 H       1  LIG1        0.1366
     38 H           2.6123   -0.2859    1.3151 H       1  LIG1        0.1468
     39 H           5.6223    1.9668   -6.2363 H       1  LIG1        0.0674
     40 H           7.4309    2.0932   -6.0673 H       1  LIG1        0.0665
     41 H           7.3087    4.5410   -6.5917 H       1  LIG1        0.0675
     42 H           5.4995    4.4178   -6.7559 H       1  LIG1        0.0655
     43 H           7.1433    3.7559   -4.2138 H       1  LIG1        0.0822
     44 H           1.6228    3.2870   -1.8843 H       1  LIG1        0.2650
     45 H           2.4080    4.1134   -3.2032 H       1  LIG1        0.2742
@<TRIPOS>BOND
     1     1     2   ar
     2     1     3   ar
     3     2     4   ar
     4     3     5   ar
     5     4    13   ar
     6     5    13   ar
     7     6     8   ar
     8     6    12   ar
     9     7     9   ar
    10     7    12   ar
    11     8    16   ar
    12     9    16   ar
    13    10    14   ar
    14    10    17   ar
    15    11    14   ar
    16    11    15   ar
    17    11    19   ar
    18    12    14    1
    19    13    17    1
    20    15    18   ar
    21    15    25    1
    22    16    27    1
    23    17    24   ar
    24    18    20    1
    25    18    28   ar
    26    19    24   ar
    27    19    28   ar
    28    20    23    1
    29    20    26    2
    30    21    22    1
    31    21    23    1
    32    22    23    1
    33     1    29    1
    34     2    30    1
    35     3    31    1
    36     4    32    1
    37     5    33    1
    38     6    34    1
    39     7    35    1
    40     8    36    1
    41     9    37    1
    42    10    38    1
    43    21    39    1
    44    21    40    1
    45    22    41    1
    46    22    42    1
    47    23    43    1
    48    25    44    1
    49    25    45    1
