@<TRIPOS>MOLECULE
AO-081/14337023
 42 45 0 0 0
SMALL
USER_CHARGES

@<TRIPOS>ATOM
      1 C           1.6078    3.1266    0.2104 C.ar    1  LIG1       -0.0747
      2 C           0.7193    1.0670   -0.6874 C.ar    1  LIG1       -0.0770
      3 C           5.9912   -2.3667    0.6567 C.ar    1  LIG1       -0.0485
      4 C           4.4574   -1.7852    2.4304 C.ar    1  LIG1       -0.0486
      5 C           0.3137    3.6339    0.3274 C.ar    1  LIG1       -0.0645
      6 C          -0.5748    1.5743   -0.5704 C.ar    1  LIG1       -0.0676
      7 C           6.5862   -3.3194    1.4835 C.ar    1  LIG1       -0.0644
      8 C           5.0524   -2.7380    3.2574 C.ar    1  LIG1       -0.0645
      9 C           1.8106    1.8432   -0.2970 C.ar    1  LIG1       -0.0590
     10 C           4.9267   -1.5996    1.1301 C.ar    1  LIG1       -0.0032
     11 C          -0.7776    2.8578   -0.0630 C.ar    1  LIG1       -0.0134
     12 C           6.1169   -3.5051    2.7838 C.ar    1  LIG1       -0.0309
     13 C           4.2449   -0.7275   -1.1084 C.2     1  LIG1        0.1571
     14 C           3.7350    0.5585    0.7455 C.2     1  LIG1        0.1665
     15 C           3.6595    2.9086   -2.3985 C.2     1  LIG1        0.1716
     16 C           3.5385    0.4704   -1.6347 C.3     1  LIG1        0.1248
     17 C           4.1102    1.8502   -1.4769 C.3     1  LIG1        0.1248
     18 C           3.1928    1.3013   -0.4217 C.3     1  LIG1        0.1274
     19 C           3.5914    2.6414   -5.2316 C.3     1  LIG1       -0.0323
     20 C           4.3255    3.7479   -4.5047 C.3     1  LIG1        0.0275
     21 N           4.3147   -0.6205    0.2799 N.am    1  LIG1       -0.2061
     22 O           4.6093   -1.6103   -1.8673 O.2     1  LIG1       -0.4206
     23 O           3.6642    1.0335    1.8669 O.2     1  LIG1       -0.4141
     24 O           2.5232    3.3618   -2.4182 O.2     1  LIG1       -0.4360
     25 O           4.6949    3.2847   -3.2020 O.3     1  LIG1       -0.3548
     26 CL         -2.3740    3.4839    0.0812 Cl      1  LIG1       -0.1424
     27 BR          6.9232   -4.7960    3.9041 Br      1  LIG1       -0.1004
     28 H           2.4516    3.7395    0.5162 H       1  LIG1        0.1361
     29 H           0.8669    0.0654   -1.0828 H       1  LIG1        0.1412
     30 H           6.3649   -2.2300   -0.3547 H       1  LIG1        0.1463
     31 H           3.6285   -1.1929    2.8095 H       1  LIG1        0.1462
     32 H           0.1708    4.6362    0.7230 H       1  LIG1        0.1345
     33 H          -1.4158    0.9579   -0.8773 H       1  LIG1        0.1341
     34 H           7.4145   -3.9092    1.0998 H       1  LIG1        0.1469
     35 H           4.6752   -2.8706    4.2680 H       1  LIG1        0.1469
     36 H           2.7777    0.2982   -2.3867 H       1  LIG1        0.1595
     37 H           5.1639    1.9222   -1.2239 H       1  LIG1        0.1599
     38 H           4.2271    1.7585   -5.3425 H       1  LIG1        0.0605
     39 H           2.6843    2.3578   -4.6878 H       1  LIG1        0.0495
     40 H           3.2752    2.9760   -6.2252 H       1  LIG1        0.0498
     41 H           3.6841    4.6277   -4.3972 H       1  LIG1        0.1058
     42 H           5.2319    4.0294   -5.0489 H       1  LIG1        0.1058
@<TRIPOS>BOND
     1     1     5   ar
     2     1     9   ar
     3     2     6   ar
     4     2     9   ar
     5     3     7   ar
     6     3    10   ar
     7     4     8   ar
     8     4    10   ar
     9     5    11   ar
    10     6    11   ar
    11     7    12   ar
    12     8    12   ar
    13     9    18    1
    14    10    21    1
    15    11    26    1
    16    12    27    1
    17    13    16    1
    18    13    21   am
    19    13    22    2
    20    14    18    1
    21    14    21   am
    22    14    23    2
    23    15    17    1
    24    15    24    2
    25    15    25    1
    26    16    17    1
    27    16    18    1
    28    17    18    1
    29    19    20    1
    30    20    25    1
    31     1    28    1
    32     2    29    1
    33     3    30    1
    34     4    31    1
    35     5    32    1
    36     6    33    1
    37     7    34    1
    38     8    35    1
    39    16    36    1
    40    17    37    1
    41    19    38    1
    42    19    39    1
    43    19    40    1
    44    20    41    1
    45    20    42    1
