@<TRIPOS>MOLECULE
AE-842/31985041
 42 46 0 0 0
SMALL
USER_CHARGES

@<TRIPOS>ATOM
      1 C          -1.4059    2.8265    0.2296 C.ar    1  LIG1       -0.1032
      2 C           5.8355   -3.5289    2.4762 C.ar    1  LIG1       -0.1083
      3 C          -0.3098    3.5641   -0.2174 C.ar    1  LIG1       -0.0971
      4 C          -1.2234    1.5333    0.7196 C.ar    1  LIG1       -0.0976
      5 C           5.8113   -3.3471    1.0935 C.ar    1  LIG1       -0.0991
      6 C           5.3272   -2.5400    3.3186 C.ar    1  LIG1       -0.0988
      7 C           0.9691    3.0087   -0.1744 C.ar    1  LIG1       -0.0745
      8 C           0.0553    0.9778    0.7627 C.ar    1  LIG1       -0.0757
      9 C           5.2790   -2.1766    0.5532 C.ar    1  LIG1       -0.0596
     10 C           4.7949   -1.3695    2.7783 C.ar    1  LIG1       -0.0592
     11 C           1.1516    1.7155    0.3158 C.ar    1  LIG1       -0.0311
     12 C           4.7707   -1.1877    1.3955 C.ar    1  LIG1       -0.0336
     13 C           2.4775    1.1396    0.3604 C.2     1  LIG1        0.0082
     14 C           3.5790    0.8467   -3.1137 C.3     1  LIG1       -0.0653
     15 C           4.7495   -0.1573   -2.9172 C.3     1  LIG1       -0.0629
     16 C           5.3869    1.8322   -1.9180 C.3     1  LIG1       -0.0574
     17 C           3.5503    1.5069   -0.6223 C.3     1  LIG1        0.0104
     18 C           3.8431    1.9327   -2.0466 C.3     1  LIG1       -0.0523
     19 C           5.3696    0.3281   -1.5790 C.3     1  LIG1       -0.0461
     20 C           4.2314    0.1324   -0.5726 C.3     1  LIG1       -0.0105
     21 N           2.9601    0.3559    1.2982 N.2     1  LIG1       -0.3298
     22 N           4.2435   -0.0286    0.8609 N.pl3   1  LIG1       -0.3443
     23 H          -2.4015    3.2590    0.1959 H       1  LIG1        0.1208
     24 H           6.2502   -4.4404    2.8969 H       1  LIG1        0.1088
     25 H          -0.4521    4.5709   -0.5992 H       1  LIG1        0.1195
     26 H          -2.0768    0.9590    1.0679 H       1  LIG1        0.1200
     27 H           6.2071   -4.1169    0.4379 H       1  LIG1        0.1215
     28 H           5.3461   -2.6818    4.3955 H       1  LIG1        0.1207
     29 H           1.8163    3.5924   -0.5251 H       1  LIG1        0.1340
     30 H           0.1857   -0.0307    1.1465 H       1  LIG1        0.1310
     31 H           5.2650   -2.0446   -0.5257 H       1  LIG1        0.1198
     32 H           4.4014   -0.6059    3.4445 H       1  LIG1        0.1192
     33 H           3.6218    1.2671   -4.1243 H       1  LIG1        0.0531
     34 H           2.6013    0.3731   -2.9779 H       1  LIG1        0.0471
     35 H           4.4015   -1.1950   -2.8890 H       1  LIG1        0.0501
     36 H           5.4709   -0.0699   -3.7386 H       1  LIG1        0.0462
     37 H           5.9096    2.0678   -2.8525 H       1  LIG1        0.0528
     38 H           5.8191    2.4447   -1.1193 H       1  LIG1        0.0573
     39 H           4.0840    2.2572   -0.0041 H       1  LIG1        0.0825
     40 H           3.4598    2.9207   -2.3074 H       1  LIG1        0.0785
     41 H           6.3263   -0.1335   -1.3339 H       1  LIG1        0.0866
     42 H           3.5656   -0.6663   -0.9440 H       1  LIG1        0.1186
@<TRIPOS>BOND
     1     1     3   ar
     2     1     4   ar
     3     2     5   ar
     4     2     6   ar
     5     3     7   ar
     6     4     8   ar
     7     5     9   ar
     8     6    10   ar
     9     7    11   ar
    10     8    11   ar
    11     9    12   ar
    12    10    12   ar
    13    11    13    1
    14    12    22    1
    15    13    17    1
    16    13    21    2
    17    14    15    1
    18    14    18    1
    19    15    19    1
    20    16    18    1
    21    16    19    1
    22    17    18    1
    23    17    20    1
    24    19    20    1
    25    20    22    1
    26    21    22    1
    27     1    23    1
    28     2    24    1
    29     3    25    1
    30     4    26    1
    31     5    27    1
    32     6    28    1
    33     7    29    1
    34     8    30    1
    35     9    31    1
    36    10    32    1
    37    14    33    1
    38    14    34    1
    39    15    35    1
    40    15    36    1
    41    16    37    1
    42    16    38    1
    43    17    39    1
    44    18    40    1
    45    19    41    1
    46    20    42    1
