@<TRIPOS>MOLECULE
AO-081/40738502
 52 55 0 0 0
SMALL
USER_CHARGES

@<TRIPOS>ATOM
      1 C           6.0825   -3.3468    2.4509 C.ar    1  LIG1       -0.0996
      2 C           6.3628   -3.1118    1.1048 C.ar    1  LIG1       -0.0900
      3 C           5.1473   -2.5550    3.1172 C.ar    1  LIG1       -0.0907
      4 C           0.2170    1.2440   -0.7439 C.ar    1  LIG1       -0.0727
      5 C           1.1283    2.8537    0.8103 C.ar    1  LIG1       -0.0728
      6 C          -1.0245    1.8757   -0.6703 C.ar    1  LIG1       -0.0887
      7 C          -0.1132    3.4855    0.8839 C.ar    1  LIG1       -0.0905
      8 C           5.7077   -2.0849    0.4251 C.ar    1  LIG1       -0.0515
      9 C           4.4923   -1.5281    2.4374 C.ar    1  LIG1       -0.0522
     10 C           5.1208    2.1382   -2.6676 C.ar    1  LIG1       -0.0249
     11 C           3.6233    1.3577   -0.9815 C.ar    1  LIG1        0.0497
     12 C           1.2933    1.7330   -0.0036 C.ar    1  LIG1       -0.0259
     13 C          -1.1895    2.9964    0.1436 C.ar    1  LIG1       -0.1072
     14 C           3.8782    2.2367   -2.0414 C.ar    1  LIG1        0.0663
     15 C           4.7725   -1.2930    1.0914 C.ar    1  LIG1        0.0037
     16 C           2.5760    1.0805   -0.0805 C.ar    1  LIG1        0.0472
     17 C           6.0290    1.1872   -2.2148 C.ar    1  LIG1       -0.0257
     18 C           4.6172    0.4571   -0.6312 C.ar    1  LIG1        0.0645
     19 C           7.3567    1.0932   -2.8966 C.3     1  LIG1        0.0062
     20 C          -3.6180    2.6977    0.7432 C.3     1  LIG1       -0.0616
     21 C          -2.9717    4.1873   -1.1802 C.3     1  LIG1       -0.0617
     22 C          -2.5823    4.9186    1.1640 C.3     1  LIG1       -0.0616
     23 C          -2.5169    3.6718    0.2205 C.3     1  LIG1       -0.0608
     24 C           2.9005    3.2566   -2.5243 C.3     1  LIG1        0.3661
     25 N           2.8720    0.0920    0.7699 N.ar    1  LIG1       -0.2744
     26 N           5.8292    0.3165   -1.1958 N.ar    1  LIG1       -0.3449
     27 N           4.1180   -0.2667    0.4111 N.ar    1  LIG1       -0.2436
     28 F           3.3628    4.0043   -3.5690 F       1  LIG1       -0.1817
     29 F           1.7241    2.7197   -2.9620 F       1  LIG1       -0.1768
     30 F           2.5574    4.1530   -1.5547 F       1  LIG1       -0.1761
     31 H           6.5910   -4.1473    2.9801 H       1  LIG1        0.1218
     32 H           7.0899   -3.7290    0.5855 H       1  LIG1        0.1289
     33 H           4.9286   -2.7395    4.1651 H       1  LIG1        0.1279
     34 H           0.3290    0.3710   -1.3825 H       1  LIG1        0.1313
     35 H           1.9576    3.2471    1.3935 H       1  LIG1        0.1393
     36 H          -1.8576    1.4888   -1.2509 H       1  LIG1        0.1260
     37 H          -0.2336    4.3582    1.5202 H       1  LIG1        0.1233
     38 H           5.9347   -1.9129   -0.6242 H       1  LIG1        0.1378
     39 H           3.7650   -0.9188    2.9687 H       1  LIG1        0.1365
     40 H           5.3745    2.7952   -3.4949 H       1  LIG1        0.1534
     41 H           8.0801    1.7548   -2.4077 H       1  LIG1        0.0871
     42 H           7.7431    0.0677   -2.8679 H       1  LIG1        0.0839
     43 H           7.2786    1.3773   -3.9526 H       1  LIG1        0.0845
     44 H          -4.6050    3.1701    0.8093 H       1  LIG1        0.0382
     45 H          -3.7242    1.8246    0.0899 H       1  LIG1        0.0403
     46 H          -3.3559    2.3307    1.7427 H       1  LIG1        0.0386
     47 H          -3.9466    4.6842   -1.1278 H       1  LIG1        0.0386
     48 H          -2.2686    4.9071   -1.6156 H       1  LIG1        0.0388
     49 H          -3.0670    3.3489   -1.8802 H       1  LIG1        0.0386
     50 H          -3.5771    5.3796    1.1867 H       1  LIG1        0.0386
     51 H          -2.3329    4.6411    2.1948 H       1  LIG1        0.0404
     52 H          -1.8768    5.6916    0.8379 H       1  LIG1        0.0382
@<TRIPOS>BOND
     1     1     2   ar
     2     1     3   ar
     3     2     8   ar
     4     3     9   ar
     5     4     6   ar
     6     4    12   ar
     7     5     7   ar
     8     5    12   ar
     9     6    13   ar
    10     7    13   ar
    11     8    15   ar
    12     9    15   ar
    13    10    14   ar
    14    10    17   ar
    15    11    14   ar
    16    11    16   ar
    17    11    18   ar
    18    12    16    1
    19    13    23    1
    20    14    24    1
    21    15    27    1
    22    16    25   ar
    23    17    19    1
    24    17    26   ar
    25    18    26   ar
    26    18    27   ar
    27    20    23    1
    28    21    23    1
    29    22    23    1
    30    24    28    1
    31    24    29    1
    32    24    30    1
    33    25    27   ar
    34     1    31    1
    35     2    32    1
    36     3    33    1
    37     4    34    1
    38     5    35    1
    39     6    36    1
    40     7    37    1
    41     8    38    1
    42     9    39    1
    43    10    40    1
    44    19    41    1
    45    19    42    1
    46    19    43    1
    47    20    44    1
    48    20    45    1
    49    20    46    1
    50    21    47    1
    51    21    48    1
    52    21    49    1
    53    22    50    1
    54    22    51    1
    55    22    52    1
