@<TRIPOS>MOLECULE
AS-938/12583062
 43 46 0 0 0
SMALL
USER_CHARGES

@<TRIPOS>ATOM
      1 C           0.2023    1.2132   -0.4655 C.ar    1  LIG1       -0.0671
      2 C           0.7116    3.5019    0.1174 C.ar    1  LIG1       -0.0693
      3 C           4.8815   -2.4440    3.1559 C.ar    1  LIG1       -0.0853
      4 C           6.2651   -3.3170    1.3781 C.ar    1  LIG1       -0.0887
      5 C           4.4664   -1.4052    2.3227 C.ar    1  LIG1       -0.0489
      6 C           5.8499   -2.2782    0.5449 C.ar    1  LIG1       -0.0550
      7 C          -1.0507    1.3394    0.1341 C.ar    1  LIG1       -0.0524
      8 C          -0.5415    3.6281    0.7170 C.ar    1  LIG1       -0.0605
      9 C           3.3234    0.3387    0.2461 C.ar    1  LIG1        0.0113
     10 C           3.3724    1.2717   -0.7486 C.ar    1  LIG1        0.0247
     11 C           1.0835    2.2945   -0.4738 C.ar    1  LIG1       -0.0211
     12 C           5.7810   -3.3998    2.6837 C.ar    1  LIG1       -0.1088
     13 C           4.6633    1.1555   -1.3809 C.ar    1  LIG1        0.0479
     14 C           4.9505   -1.3223    1.0173 C.ar    1  LIG1       -0.0008
     15 C          -1.4227    2.5468    0.7253 C.ar    1  LIG1       -0.0112
     16 C           2.3681    2.1654   -1.0885 C.ar    1  LIG1        0.0353
     17 C           5.0008    1.9981   -2.4500 C.ar    1  LIG1        0.0399
     18 C           6.2249   -4.5105    3.5744 C.3     1  LIG1       -0.0402
     19 C           6.2813    2.0005   -3.2006 C.3     1  LIG1        0.0144
     20 C          -3.4969    1.5250    1.2819 C.3     1  LIG1        0.0248
     21 N           5.3613    0.1788   -0.7764 N.ar    1  LIG1       -0.2980
     22 N           2.7245    2.9675   -2.1270 N.ar    1  LIG1       -0.2774
     23 N           4.0227    2.8824   -2.7958 N.ar    1  LIG1       -0.2753
     24 N           4.5364   -0.2844    0.1843 N.ar    1  LIG1       -0.2730
     25 O          -2.6455    2.6698    1.3098 O.3     1  LIG1       -0.4160
     26 H           0.4777    0.2657   -0.9223 H       1  LIG1        0.1381
     27 H           1.3872    4.3539    0.1191 H       1  LIG1        0.1478
     28 H           4.4996   -2.5013    4.1717 H       1  LIG1        0.1335
     29 H           6.9662   -4.0571    1.0017 H       1  LIG1        0.1341
     30 H           3.7655   -0.6661    2.7036 H       1  LIG1        0.1475
     31 H           6.2358   -2.2260   -0.4703 H       1  LIG1        0.1348
     32 H          -1.7331    0.4937    0.1373 H       1  LIG1        0.1323
     33 H          -0.8259    4.5711    1.1759 H       1  LIG1        0.1175
     34 H           2.5665    0.0650    0.9702 H       1  LIG1        0.2377
     35 H           5.5532   -5.3719    3.4746 H       1  LIG1        0.0605
     36 H           7.2448   -4.8344    3.3295 H       1  LIG1        0.0567
     37 H           6.2352   -4.1974    4.6267 H       1  LIG1        0.0567
     38 H           6.2303    1.3160   -4.0593 H       1  LIG1        0.0846
     39 H           6.5284    3.0043   -3.5775 H       1  LIG1        0.0851
     40 H           7.1244    1.6901   -2.5651 H       1  LIG1        0.0803
     41 H          -4.4400    1.7591    1.7817 H       1  LIG1        0.1226
     42 H          -3.0029    0.6901    1.7851 H       1  LIG1        0.0903
     43 H          -3.6956    1.2552    0.2419 H       1  LIG1        0.0908
@<TRIPOS>BOND
     1     1     7   ar
     2     1    11   ar
     3     2     8   ar
     4     2    11   ar
     5     3     5   ar
     6     3    12   ar
     7     4     6   ar
     8     4    12   ar
     9     5    14   ar
    10     6    14   ar
    11     7    15   ar
    12     8    15   ar
    13     9    10   ar
    14     9    24   ar
    15    10    13   ar
    16    10    16   ar
    17    11    16    1
    18    12    18    1
    19    13    17   ar
    20    13    21   ar
    21    14    24    1
    22    15    25    1
    23    16    22   ar
    24    17    19    1
    25    17    23   ar
    26    20    25    1
    27    21    24   ar
    28    22    23   ar
    29     1    26    1
    30     2    27    1
    31     3    28    1
    32     4    29    1
    33     5    30    1
    34     6    31    1
    35     7    32    1
    36     8    33    1
    37     9    34    1
    38    18    35    1
    39    18    36    1
    40    18    37    1
    41    19    38    1
    42    19    39    1
    43    19    40    1
    44    20    41    1
    45    20    42    1
    46    20    43    1
