@<TRIPOS>MOLECULE
AS-938/12583055
 40 43 0 0 0
SMALL
USER_CHARGES

@<TRIPOS>ATOM
      1 C           0.2029    1.2160   -0.4613 C.ar    1  LIG1       -0.0766
      2 C           0.7147    3.5045    0.1198 C.ar    1  LIG1       -0.0597
      3 C           4.4679   -1.4035    2.3226 C.ar    1  LIG1       -0.0374
      4 C           5.8488   -2.2800    0.5444 C.ar    1  LIG1       -0.0439
      5 C          -1.0493    1.3434    0.1398 C.ar    1  LIG1       -0.0649
      6 C          -0.5375    3.6320    0.7209 C.ar    1  LIG1       -0.0474
      7 C           4.8824   -2.4420    3.1565 C.ar    1  LIG1       -0.0539
      8 C           6.2634   -3.3185    1.3783 C.ar    1  LIG1       -0.0576
      9 C           3.3242    0.3393    0.2467 C.ar    1  LIG1        0.0121
     10 C           3.3728    1.2719   -0.7485 C.ar    1  LIG1        0.0264
     11 C           1.0850    2.2965   -0.4713 C.ar    1  LIG1       -0.0209
     12 C           4.6627    1.1543   -1.3824 C.ar    1  LIG1        0.0496
     13 C           4.9511   -1.3226    1.0166 C.ar    1  LIG1        0.0062
     14 C          -1.4195    2.5513    0.7309 C.ar    1  LIG1       -0.0107
     15 C           5.7801   -3.3995    2.6843 C.ar    1  LIG1       -0.0048
     16 C           2.3687    2.1662   -1.0876 C.ar    1  LIG1        0.0366
     17 C           4.9995    1.9961   -2.4523 C.ar    1  LIG1        0.0412
     18 C           6.2790    1.9972   -3.2045 C.3     1  LIG1        0.0148
     19 C          -3.4938    1.5315    1.2905 C.3     1  LIG1        0.0249
     20 N           5.3607    0.1774   -0.7783 N.ar    1  LIG1       -0.2970
     21 N           2.7244    2.9675   -2.1269 N.ar    1  LIG1       -0.2758
     22 N           4.0217    2.8810   -2.7973 N.ar    1  LIG1       -0.2737
     23 N           4.5367   -0.2848    0.1837 N.ar    1  LIG1       -0.2709
     24 O          -2.6415    2.6756    1.3168 O.3     1  LIG1       -0.4155
     25 CL          6.2933   -4.6792    3.7142 Cl      1  LIG1       -0.1330
     26 H           0.4770    0.2680   -0.9180 H       1  LIG1        0.1326
     27 H           1.3910    4.3560    0.1202 H       1  LIG1        0.1536
     28 H           3.7679   -0.6639    2.7037 H       1  LIG1        0.1583
     29 H           6.2334   -2.2286   -0.4713 H       1  LIG1        0.1448
     30 H          -1.7323    0.4982    0.1442 H       1  LIG1        0.1156
     31 H          -0.8206    4.5755    1.1797 H       1  LIG1        0.1348
     32 H           4.4976   -2.4932    4.1718 H       1  LIG1        0.1497
     33 H           6.9630   -4.0579    0.9969 H       1  LIG1        0.1497
     34 H           2.5681    0.0666    0.9719 H       1  LIG1        0.2386
     35 H           6.2265    1.3124   -4.0628 H       1  LIG1        0.0850
     36 H           6.5265    3.0006   -3.5823 H       1  LIG1        0.0857
     37 H           7.1227    1.6864   -2.5700 H       1  LIG1        0.0806
     38 H          -4.4361    1.7665    1.7914 H       1  LIG1        0.0902
     39 H          -2.9998    0.6963    1.7935 H       1  LIG1        0.0898
     40 H          -3.6940    1.2612    0.2509 H       1  LIG1        0.1228
@<TRIPOS>BOND
     1     1     5   ar
     2     1    11   ar
     3     2     6   ar
     4     2    11   ar
     5     3     7   ar
     6     3    13   ar
     7     4     8   ar
     8     4    13   ar
     9     5    14   ar
    10     6    14   ar
    11     7    15   ar
    12     8    15   ar
    13     9    10   ar
    14     9    23   ar
    15    10    12   ar
    16    10    16   ar
    17    11    16    1
    18    12    17   ar
    19    12    20   ar
    20    13    23    1
    21    14    24    1
    22    15    25    1
    23    16    21   ar
    24    17    18    1
    25    17    22   ar
    26    19    24    1
    27    20    23   ar
    28    21    22   ar
    29     1    26    1
    30     2    27    1
    31     3    28    1
    32     4    29    1
    33     5    30    1
    34     6    31    1
    35     7    32    1
    36     8    33    1
    37     9    34    1
    38    18    35    1
    39    18    36    1
    40    18    37    1
    41    19    38    1
    42    19    39    1
    43    19    40    1
