@<TRIPOS>MOLECULE
AG-205/36992071
 42 45 0 0 0
SMALL
USER_CHARGES

@<TRIPOS>ATOM
      1 C           5.3330   -2.9389    3.0632 C.ar    1  LIG1       -0.1007
      2 C           0.4641    0.9486   -0.3223 C.ar    1  LIG1       -0.0758
      3 C           1.4989    3.0914    0.0957 C.ar    1  LIG1       -0.0765
      4 C          -0.7962    1.5331   -0.1989 C.ar    1  LIG1       -0.0665
      5 C           0.2385    3.6760    0.2191 C.ar    1  LIG1       -0.0667
      6 C           4.6692   -1.7837    2.5581 C.ar    1  LIG1       -0.0813
      7 C           3.3018    0.0935    0.5514 C.ar    1  LIG1       -0.0155
      8 C           6.1553   -3.5166    2.1211 C.ar    1  LIG1       -0.0419
      9 C           3.8224    1.5603   -1.2897 C.ar    1  LIG1        0.0177
     10 C           1.6118    1.7276   -0.1750 C.ar    1  LIG1       -0.0588
     11 C           2.9166    1.1224   -0.3022 C.ar    1  LIG1       -0.0356
     12 C           3.7366    2.5719   -2.2993 C.ar    1  LIG1       -0.0325
     13 C          -0.9091    2.8969    0.0718 C.ar    1  LIG1       -0.0114
     14 C           4.5619   -0.4549    0.3908 C.ar    1  LIG1        0.0169
     15 C           5.0098   -1.5224    1.2490 C.ar    1  LIG1        0.0182
     16 C           4.8821    2.6593   -3.0594 C.ar    1  LIG1        0.1306
     17 C           5.0559    0.9190   -1.3374 C.ar    1  LIG1        0.0683
     18 C           5.1843    3.5321   -4.1502 C.2     1  LIG1        0.1884
     19 C           3.0992    3.8484   -6.5336 C.3     1  LIG1       -0.0331
     20 C           3.9998    4.8204   -5.8015 C.3     1  LIG1        0.0277
     21 N           5.4731   -0.0809   -0.5328 N.ar    1  LIG1       -0.3391
     22 N           2.6592    3.3697   -2.5064 N.pl3   1  LIG1       -0.3966
     23 O           6.2598    3.5455   -4.7920 O.2     1  LIG1       -0.4533
     24 O           4.1464    4.3889   -4.4444 O.3     1  LIG1       -0.3479
     25 S           6.1251   -2.6672    0.6344 S.2     1  LIG1       -0.1148
     26 S           6.0672    1.5295   -2.5671 S.2     1  LIG1       -0.0212
     27 CL         -2.4646    3.6171    0.2255 Cl      1  LIG1       -0.1356
     28 H           5.2142   -3.3264    4.0666 H       1  LIG1        0.1180
     29 H           0.5357   -0.1157   -0.5333 H       1  LIG1        0.1415
     30 H           2.3842    3.7118    0.2142 H       1  LIG1        0.1407
     31 H          -1.6824    0.9139   -0.3142 H       1  LIG1        0.1377
     32 H           0.1656    4.7396    0.4315 H       1  LIG1        0.1387
     33 H           3.9789   -1.1792    3.1334 H       1  LIG1        0.1387
     34 H           2.6283   -0.2686    1.3240 H       1  LIG1        0.1485
     35 H           6.7727   -4.3965    2.2348 H       1  LIG1        0.1741
     36 H           3.5277    2.8423   -6.5317 H       1  LIG1        0.0489
     37 H           2.1097    3.8122   -6.0663 H       1  LIG1        0.0489
     38 H           2.9500    4.1669   -7.5706 H       1  LIG1        0.0583
     39 H           3.5655    5.8247   -5.8071 H       1  LIG1        0.1008
     40 H           4.9883    4.8548   -6.2691 H       1  LIG1        0.1008
     41 H           1.7936    3.2627   -1.9636 H       1  LIG1        0.2752
     42 H           2.6289    4.0499   -3.2756 H       1  LIG1        0.2661
@<TRIPOS>BOND
     1     1     6   ar
     2     1     8   ar
     3     2     4   ar
     4     2    10   ar
     5     3     5   ar
     6     3    10   ar
     7     4    13   ar
     8     5    13   ar
     9     6    15   ar
    10     7    11   ar
    11     7    14   ar
    12     8    25   ar
    13     9    11   ar
    14     9    12   ar
    15     9    17   ar
    16    10    11    1
    17    12    16   ar
    18    12    22    1
    19    13    27    1
    20    14    15    1
    21    14    21   ar
    22    15    25   ar
    23    16    18    1
    24    16    26   ar
    25    17    21   ar
    26    17    26   ar
    27    18    23    2
    28    18    24    1
    29    19    20    1
    30    20    24    1
    31     1    28    1
    32     2    29    1
    33     3    30    1
    34     4    31    1
    35     5    32    1
    36     6    33    1
    37     7    34    1
    38     8    35    1
    39    19    36    1
    40    19    37    1
    41    19    38    1
    42    20    39    1
    43    20    40    1
    44    22    41    1
    45    22    42    1
