@<TRIPOS>MOLECULE
AM-807/41930361
 40 44 0 0 0
SMALL
USER_CHARGES

@<TRIPOS>ATOM
      1 C           5.9345   -3.5722    2.7730 C.ar    1  LIG1       -0.1068
      2 C           5.5761   -2.3522    3.3461 C.ar    1  LIG1       -0.0988
      3 C           5.8287   -3.7528    1.3939 C.ar    1  LIG1       -0.1021
      4 C           5.1117   -1.3127    2.5402 C.ar    1  LIG1       -0.0737
      5 C           5.3644   -2.7134    0.5879 C.ar    1  LIG1       -0.0795
      6 C           1.3418    2.7994    0.7411 C.ar    1  LIG1       -0.0775
      7 C           0.4297    1.1883   -0.8113 C.ar    1  LIG1       -0.0772
      8 C           0.0732    3.3538    0.9109 C.ar    1  LIG1       -0.0658
      9 C          -0.8389    1.7429   -0.6414 C.ar    1  LIG1       -0.0670
     10 C           3.2596    0.1070    0.5284 C.ar    1  LIG1       -0.0297
     11 C           3.7039    1.6152   -1.2995 C.ar    1  LIG1        0.0071
     12 C           1.5201    1.7165   -0.1200 C.ar    1  LIG1       -0.0631
     13 C           5.0059   -1.4933    1.1611 C.ar    1  LIG1       -0.0317
     14 C           2.8328    1.1431   -0.2963 C.ar    1  LIG1       -0.0415
     15 C           3.5974    2.6310   -2.2910 C.ar    1  LIG1       -0.0123
     16 C          -1.0171    2.8257    0.2197 C.ar    1  LIG1       -0.0112
     17 C           4.5247   -0.4156    0.3261 C.ar    1  LIG1       -0.0003
     18 C           4.7219    2.7451   -3.0727 C.ar    1  LIG1        0.0770
     19 C           4.9506    0.9953   -1.3903 C.ar    1  LIG1        0.0598
     20 C           3.6297    4.5803   -4.3336 C.ar    1  LIG1       -0.0010
     21 C           4.8409    3.7086   -4.1438 C.ar    1  LIG1        0.0448
     22 C           2.5447    4.4262   -3.5328 C.ar    1  LIG1       -0.0275
     23 N           5.4051   -0.0104   -0.6137 N.ar    1  LIG1       -0.3520
     24 N           2.5439    3.4548   -2.5244 N.ar    1  LIG1       -0.3254
     25 O           1.4505    5.0505   -3.5340 O.3     1  LIG1       -0.5462
     26 O           5.8182    3.8519   -4.8718 O.2     1  LIG1       -0.5458
     27 S           5.9287    1.6424   -2.6387 S.2     1  LIG1       -0.0353
     28 CL         -2.5817    3.5115    0.4287 Cl      1  LIG1       -0.1399
     29 H           6.2978   -4.3808    3.4005 H       1  LIG1        0.1160
     30 H           5.6600   -2.2108    4.4197 H       1  LIG1        0.1170
     31 H           6.1091   -4.7021    0.9468 H       1  LIG1        0.1162
     32 H           4.8363   -0.3674    3.0021 H       1  LIG1        0.1401
     33 H           5.2879   -2.8687   -0.4855 H       1  LIG1        0.1275
     34 H           2.1819    3.2223    1.2868 H       1  LIG1        0.1361
     35 H           0.5527    0.3450   -1.4869 H       1  LIG1        0.1383
     36 H          -0.0512    4.1988    1.5838 H       1  LIG1        0.1422
     37 H          -1.6793    1.3219   -1.1874 H       1  LIG1        0.1374
     38 H           2.6140   -0.2811    1.3124 H       1  LIG1        0.1420
     39 H           3.6696    5.3203   -5.1267 H       1  LIG1        0.0890
     40 H           1.6860    3.4227   -1.9841 H       1  LIG1        0.3203
@<TRIPOS>BOND
     1     1     2   ar
     2     1     3   ar
     3     2     4   ar
     4     3     5   ar
     5     4    13   ar
     6     5    13   ar
     7     6     8   ar
     8     6    12   ar
     9     7     9   ar
    10     7    12   ar
    11     8    16   ar
    12     9    16   ar
    13    10    14   ar
    14    10    17   ar
    15    11    14   ar
    16    11    15   ar
    17    11    19   ar
    18    12    14    1
    19    13    17    1
    20    15    18   ar
    21    15    24   ar
    22    16    28    1
    23    17    23   ar
    24    18    21   ar
    25    18    27   ar
    26    19    23   ar
    27    19    27   ar
    28    20    21   ar
    29    20    22   ar
    30    21    26    2
    31    22    24   ar
    32    22    25    1
    33     1    29    1
    34     2    30    1
    35     3    31    1
    36     4    32    1
    37     5    33    1
    38     6    34    1
    39     7    35    1
    40     8    36    1
    41     9    37    1
    42    10    38    1
    43    20    39    1
    44    24    40    1
