@<TRIPOS>MOLECULE
AK-087/42718333
 36 38 0 0 0
SMALL
USER_CHARGES

@<TRIPOS>ATOM
      1 C           6.4898    1.5225   -1.7493 C.1     1  LIG1        0.0326
      2 C           1.1784    3.0667   -0.3761 C.ar    1  LIG1       -0.0751
      3 C           0.1697    1.0293    0.4412 C.ar    1  LIG1       -0.0757
      4 C          -0.0596    3.7060   -0.3109 C.ar    1  LIG1       -0.0972
      5 C          -1.0683    1.6684    0.5065 C.ar    1  LIG1       -0.0973
      6 C           5.1926   -2.4281    0.3972 C.ar    1  LIG1       -0.0388
      7 C           5.0119   -1.1836    2.4602 C.ar    1  LIG1       -0.0458
      8 C           5.8528   -3.4537    1.0738 C.ar    1  LIG1       -0.0551
      9 C           5.6721   -2.2092    3.1368 C.ar    1  LIG1       -0.0592
     10 C           3.6143    1.3514   -0.9661 C.ar    1  LIG1       -0.0338
     11 C           1.2932    1.7284   -0.0001 C.ar    1  LIG1       -0.0352
     12 C          -1.1830    3.0068    0.1305 C.ar    1  LIG1       -0.1160
     13 C           4.7722   -1.2929    1.0904 C.ar    1  LIG1       -0.0010
     14 C           6.0925   -3.3444    2.4436 C.ar    1  LIG1       -0.0068
     15 C           2.5682    1.0711   -0.0667 C.ar    1  LIG1        0.0091
     16 C           4.6055    0.4629   -0.6275 C.ar    1  LIG1       -0.0006
     17 C          -2.5060    3.6914    0.2010 C.3     1  LIG1       -0.0427
     18 C           5.9506    0.2622   -1.2016 C.3     1  LIG1        0.1205
     19 N           6.9046    2.5179   -2.1780 N.1     1  LIG1       -0.3852
     20 N           2.8668    0.0818    0.7796 N.ar    1  LIG1       -0.3106
     21 N           4.1119   -0.2673    0.4133 N.ar    1  LIG1       -0.2874
     22 CL          6.9048   -4.6110    3.2785 Cl      1  LIG1       -0.1355
     23 H           2.0444    3.6257   -0.7230 H       1  LIG1        0.1327
     24 H           0.2429   -0.0145    0.7379 H       1  LIG1        0.1316
     25 H          -0.1401    4.7491   -0.6050 H       1  LIG1        0.1193
     26 H          -1.9388    1.1167    0.8516 H       1  LIG1        0.1204
     27 H           5.0122   -2.5266   -0.6705 H       1  LIG1        0.1529
     28 H           4.6892   -0.3044    3.0126 H       1  LIG1        0.1379
     29 H           6.1755   -4.3324    0.5212 H       1  LIG1        0.1469
     30 H           5.8524   -2.1103    4.2042 H       1  LIG1        0.1458
     31 H           3.6487    2.0932   -1.7515 H       1  LIG1        0.1386
     32 H          -3.0454    3.5789   -0.7474 H       1  LIG1        0.0577
     33 H          -3.1270    3.2767    1.0057 H       1  LIG1        0.0543
     34 H          -2.3895    4.7629    0.4100 H       1  LIG1        0.0541
     35 H           5.9349   -0.4974   -2.0027 H       1  LIG1        0.1653
     36 H           6.6545   -0.1294   -0.4467 H       1  LIG1        0.1792
@<TRIPOS>BOND
     1     1    18    1
     2     1    19    3
     3     2     4   ar
     4     2    11   ar
     5     3     5   ar
     6     3    11   ar
     7     4    12   ar
     8     5    12   ar
     9     6     8   ar
    10     6    13   ar
    11     7     9   ar
    12     7    13   ar
    13     8    14   ar
    14     9    14   ar
    15    10    15   ar
    16    10    16   ar
    17    11    15    1
    18    12    17    1
    19    13    21    1
    20    14    22    1
    21    15    20   ar
    22    16    18    1
    23    16    21   ar
    24    20    21   ar
    25     2    23    1
    26     3    24    1
    27     4    25    1
    28     5    26    1
    29     6    27    1
    30     7    28    1
    31     8    29    1
    32     9    30    1
    33    10    31    1
    34    17    32    1
    35    17    33    1
    36    17    34    1
    37    18    35    1
    38    18    36    1
