@<TRIPOS>MOLECULE
AB-321/43115455
 42 45 0 0 0
SMALL
USER_CHARGES

@<TRIPOS>ATOM
      1 C          -1.2311    3.0863    0.0749 C.ar    1  LIG1       -0.1065
      2 C           6.2057   -3.3863    2.4195 C.ar    1  LIG1       -0.0988
      3 C           5.0732    2.1663   -2.6681 C.ar    1  LIG1       -0.0958
      4 C          -0.0518    3.8068    0.2640 C.ar    1  LIG1       -0.1024
      5 C          -1.1790    1.7122   -0.1593 C.ar    1  LIG1       -0.0990
      6 C           6.0508    1.2482   -2.2901 C.ar    1  LIG1       -0.0924
      7 C           5.9344   -3.4847    1.0547 C.ar    1  LIG1       -0.0921
      8 C           5.7800   -2.2680    3.1362 C.ar    1  LIG1       -0.0888
      9 C           3.8435    2.2185   -2.0016 C.ar    1  LIG1       -0.0807
     10 C           1.1796    3.1532    0.2189 C.ar    1  LIG1       -0.0851
     11 C           0.0525    1.0586   -0.2044 C.ar    1  LIG1       -0.0814
     12 C           5.8324    0.3551   -1.2372 C.ar    1  LIG1       -0.0626
     13 C           5.2376   -2.4647    0.4069 C.ar    1  LIG1       -0.0617
     14 C           5.0832   -1.2480    2.4884 C.ar    1  LIG1       -0.0579
     15 C           3.6005    1.3280   -0.9370 C.ar    1  LIG1       -0.0328
     16 C           1.2318    1.7791   -0.0153 C.ar    1  LIG1       -0.0569
     17 C           2.5005    1.1055   -0.0620 C.ar    1  LIG1       -0.0042
     18 C           4.5985    0.4187   -0.5801 C.ar    1  LIG1       -0.0252
     19 C           4.8121   -1.3464    1.1237 C.ar    1  LIG1       -0.0268
     20 C           2.8455    0.0842    0.7929 C.ar    1  LIG1        0.1074
     21 C           2.0567   -0.4874    1.8476 C.2     1  LIG1        0.2214
     22 C           0.9248   -0.0103    3.9105 C.3     1  LIG1        0.0386
     23 N           4.1127   -0.3234    0.4729 N.ar    1  LIG1       -0.3115
     24 O           1.7086   -1.6846    1.9169 O.2     1  LIG1       -0.4222
     25 O           1.7129    0.4397    2.8033 O.3     1  LIG1       -0.3424
     26 H          -2.1901    3.5948    0.1111 H       1  LIG1        0.1148
     27 H           6.7466   -4.1809    2.9247 H       1  LIG1        0.1232
     28 H           5.2659    2.8504   -3.4903 H       1  LIG1        0.1172
     29 H          -0.0922    4.8764    0.4477 H       1  LIG1        0.1155
     30 H          -2.0974    1.1512   -0.3052 H       1  LIG1        0.1163
     31 H           6.9987    1.2251   -2.8220 H       1  LIG1        0.1301
     32 H           6.2645   -4.3559    0.4967 H       1  LIG1        0.1253
     33 H           5.9904   -2.1927    4.1992 H       1  LIG1        0.1260
     34 H           3.0926    2.9412   -2.3080 H       1  LIG1        0.1358
     35 H           2.0901    3.7289    0.3682 H       1  LIG1        0.1230
     36 H           0.0762   -0.0131   -0.3879 H       1  LIG1        0.1239
     37 H           6.5997   -0.3559   -0.9493 H       1  LIG1        0.1260
     38 H           5.0320   -2.5543   -0.6571 H       1  LIG1        0.1319
     39 H           4.7566   -0.3822    3.0593 H       1  LIG1        0.1345
     40 H           0.7296    0.8276    4.5842 H       1  LIG1        0.1252
     41 H           1.4596   -0.8018    4.4417 H       1  LIG1        0.0954
     42 H          -0.0237   -0.4022    3.5358 H       1  LIG1        0.0957
@<TRIPOS>BOND
     1     1     4   ar
     2     1     5   ar
     3     2     7   ar
     4     2     8   ar
     5     3     6   ar
     6     3     9   ar
     7     4    10   ar
     8     5    11   ar
     9     6    12   ar
    10     7    13   ar
    11     8    14   ar
    12     9    15   ar
    13    10    16   ar
    14    11    16   ar
    15    12    18   ar
    16    13    19   ar
    17    14    19   ar
    18    15    17   ar
    19    15    18   ar
    20    16    17    1
    21    17    20   ar
    22    18    23   ar
    23    19    23    1
    24    20    21    1
    25    20    23   ar
    26    21    24    2
    27    21    25    1
    28    22    25    1
    29     1    26    1
    30     2    27    1
    31     3    28    1
    32     4    29    1
    33     5    30    1
    34     6    31    1
    35     7    32    1
    36     8    33    1
    37     9    34    1
    38    10    35    1
    39    11    36    1
    40    12    37    1
    41    13    38    1
    42    14    39    1
    43    22    40    1
    44    22    41    1
    45    22    42    1
