@<TRIPOS>MOLECULE
AG-690/40639050
 36 38 0 0 0
SMALL
USER_CHARGES

@<TRIPOS>ATOM
      1 C           3.1856    2.8258   -2.3429 C.1     1  LIG1        0.0812
      2 C           5.9493   -2.5165    2.7237 C.ar    1  LIG1       -0.1021
      3 C           1.3193    2.8902    0.6634 C.ar    1  LIG1       -0.0844
      4 C           0.3977    1.2428   -0.8444 C.ar    1  LIG1       -0.0856
      5 C           0.0396    3.3943    0.8950 C.ar    1  LIG1       -0.0969
      6 C          -0.8821    1.7468   -0.6128 C.ar    1  LIG1       -0.0971
      7 C           5.3763   -1.2834    2.2980 C.ar    1  LIG1       -0.0826
      8 C           3.2974    0.2750    0.3761 C.ar    1  LIG1       -0.0142
      9 C           6.1212   -3.3958    1.6773 C.ar    1  LIG1       -0.0422
     10 C           3.6304    1.7792   -1.4708 C.ar    1  LIG1        0.1506
     11 C           1.4985    1.8145   -0.2064 C.ar    1  LIG1       -0.0571
     12 C           2.8259    1.2919   -0.4468 C.ar    1  LIG1       -0.0016
     13 C          -1.0612    2.8226    0.2570 C.ar    1  LIG1       -0.1137
     14 C           4.5703   -0.2164    0.1352 C.ar    1  LIG1        0.0085
     15 C           5.1323   -1.2671    0.9421 C.ar    1  LIG1        0.0163
     16 C           4.8884    1.2205   -1.6289 C.ar    1  LIG1        0.1219
     17 C          -2.4295    3.3616    0.5044 C.3     1  LIG1       -0.0412
     18 C           6.9942    1.0405   -2.7192 C.3     1  LIG1        0.0422
     19 N           2.8255    3.6735   -3.0491 N.1     1  LIG1       -0.3659
     20 N           5.3808    0.2317   -0.8495 N.ar    1  LIG1       -0.3320
     21 O           5.7205    1.6656   -2.6241 O.3     1  LIG1       -0.3614
     22 S           5.5930   -2.7343    0.1888 S.2     1  LIG1       -0.1140
     23 H           6.2223   -2.7471    3.7451 H       1  LIG1        0.1163
     24 H           2.1675    3.3472    1.1678 H       1  LIG1        0.1316
     25 H           0.5209    0.4034   -1.5247 H       1  LIG1        0.1256
     26 H          -0.0904    4.2333    1.5734 H       1  LIG1        0.1228
     27 H          -1.7343    1.2949   -1.1137 H       1  LIG1        0.1221
     28 H           5.1585   -0.4540    2.9595 H       1  LIG1        0.1358
     29 H           2.6886   -0.1229    1.1835 H       1  LIG1        0.1461
     30 H           6.5322   -4.3947    1.7157 H       1  LIG1        0.1730
     31 H          -2.6644    4.1535   -0.2173 H       1  LIG1        0.0589
     32 H          -3.1897    2.5746    0.4171 H       1  LIG1        0.0557
     33 H          -2.5171    3.7767    1.5170 H       1  LIG1        0.0552
     34 H           7.5567    1.4818   -3.5456 H       1  LIG1        0.1006
     35 H           6.8634   -0.0318   -2.8850 H       1  LIG1        0.1273
     36 H           7.5386    1.1990   -1.7853 H       1  LIG1        0.1006
@<TRIPOS>BOND
     1     1    10    1
     2     1    19    3
     3     2     7   ar
     4     2     9   ar
     5     3     5   ar
     6     3    11   ar
     7     4     6   ar
     8     4    11   ar
     9     5    13   ar
    10     6    13   ar
    11     7    15   ar
    12     8    12   ar
    13     8    14   ar
    14     9    22   ar
    15    10    12   ar
    16    10    16   ar
    17    11    12    1
    18    13    17    1
    19    14    15    1
    20    14    20   ar
    21    15    22   ar
    22    16    20   ar
    23    16    21    1
    24    18    21    1
    25     2    23    1
    26     3    24    1
    27     4    25    1
    28     5    26    1
    29     6    27    1
    30     7    28    1
    31     8    29    1
    32     9    30    1
    33    17    31    1
    34    17    32    1
    35    17    33    1
    36    18    34    1
    37    18    35    1
    38    18    36    1
