@<TRIPOS>MOLECULE
AG-690/13704183
 48 51 0 0 0
SMALL
USER_CHARGES

@<TRIPOS>ATOM
      1 C           5.9423   -3.5738    2.7704 C.ar    1  LIG1       -0.1025
      2 C           5.5824   -2.3548    3.3451 C.ar    1  LIG1       -0.0989
      3 C           5.8349   -3.7534    1.3914 C.ar    1  LIG1       -0.0956
      4 C           5.1150   -1.3154    2.5407 C.ar    1  LIG1       -0.0786
      5 C           5.3676   -2.7142    0.5869 C.ar    1  LIG1       -0.0729
      6 C           1.3406    2.8011    0.7397 C.ar    1  LIG1       -0.0768
      7 C           0.4277    1.1905   -0.8127 C.ar    1  LIG1       -0.0766
      8 C           0.0730    3.3593    0.9059 C.ar    1  LIG1       -0.0671
      9 C          -0.8397    1.7486   -0.6465 C.ar    1  LIG1       -0.0668
     10 C           3.2577    0.1031    0.5320 C.ar    1  LIG1       -0.0224
     11 C           3.7008    1.6123   -1.2950 C.ar    1  LIG1        0.0162
     12 C           1.5179    1.7167   -0.1197 C.ar    1  LIG1       -0.0602
     13 C           5.0075   -1.4951    1.1616 C.ar    1  LIG1       -0.0282
     14 C           2.8303    1.1393   -0.2921 C.ar    1  LIG1       -0.0385
     15 C           3.5687    2.6399   -2.2832 C.ar    1  LIG1       -0.0324
     16 C          -1.0170    2.8329    0.2128 C.ar    1  LIG1       -0.0116
     17 C           4.5233   -0.4177    0.3282 C.ar    1  LIG1        0.0050
     18 C           4.6916    2.7632   -3.0716 C.ar    1  LIG1        0.1284
     19 C           4.9446    0.9962   -1.3870 C.ar    1  LIG1        0.0637
     20 C           4.9480    3.6609   -4.1536 C.2     1  LIG1        0.1884
     21 C           8.0780    4.5578   -5.7568 C.3     1  LIG1       -0.0383
     22 C           6.1358    3.6797   -7.1016 C.3     1  LIG1       -0.0345
     23 C           6.5751    4.3263   -5.7968 C.3     1  LIG1        0.0209
     24 N           5.4021   -0.0095   -0.6122 N.ar    1  LIG1       -0.3474
     25 N           2.4713    3.4203   -2.4473 N.pl3   1  LIG1       -0.3949
     26 O           4.1507    4.5264   -4.5827 O.2     1  LIG1       -0.4544
     27 O           6.1990    3.4830   -4.7028 O.3     1  LIG1       -0.3470
     28 S           5.9108    1.6482   -2.6317 S.2     1  LIG1       -0.0265
     29 CL         -2.5804    3.5231    0.4172 Cl      1  LIG1       -0.1359
     30 H           6.3078   -4.3822    3.3968 H       1  LIG1        0.1224
     31 H           5.6674   -2.2142    4.4186 H       1  LIG1        0.1199
     32 H           6.1163   -4.7018    0.9431 H       1  LIG1        0.1205
     33 H           4.8386   -0.3711    3.0037 H       1  LIG1        0.1290
     34 H           5.2898   -2.8687   -0.4867 H       1  LIG1        0.1416
     35 H           2.1805    3.2226    1.2867 H       1  LIG1        0.1399
     36 H           0.5501    0.3459   -1.4869 H       1  LIG1        0.1405
     37 H          -0.0507    4.2054    1.5773 H       1  LIG1        0.1377
     38 H          -1.6801    1.3290   -1.1938 H       1  LIG1        0.1387
     39 H           2.6123   -0.2860    1.3154 H       1  LIG1        0.1475
     40 H           8.6277    3.6199   -5.8823 H       1  LIG1        0.0443
     41 H           8.3783    5.2487   -6.5517 H       1  LIG1        0.0500
     42 H           8.3812    5.0177   -4.8097 H       1  LIG1        0.0399
     43 H           6.6393    2.7210   -7.2593 H       1  LIG1        0.0479
     44 H           6.3621    4.3372   -7.9480 H       1  LIG1        0.0578
     45 H           5.0531    3.5129   -7.1139 H       1  LIG1        0.0506
     46 H           6.0548    5.2811   -5.6688 H       1  LIG1        0.1123
     47 H           1.6226    3.2869   -1.8841 H       1  LIG1        0.2672
     48 H           2.4078    4.1133   -3.2029 H       1  LIG1        0.2776
@<TRIPOS>BOND
     1     1     2   ar
     2     1     3   ar
     3     2     4   ar
     4     3     5   ar
     5     4    13   ar
     6     5    13   ar
     7     6     8   ar
     8     6    12   ar
     9     7     9   ar
    10     7    12   ar
    11     8    16   ar
    12     9    16   ar
    13    10    14   ar
    14    10    17   ar
    15    11    14   ar
    16    11    15   ar
    17    11    19   ar
    18    12    14    1
    19    13    17    1
    20    15    18   ar
    21    15    25    1
    22    16    29    1
    23    17    24   ar
    24    18    20    1
    25    18    28   ar
    26    19    24   ar
    27    19    28   ar
    28    20    26    2
    29    20    27    1
    30    21    23    1
    31    22    23    1
    32    23    27    1
    33     1    30    1
    34     2    31    1
    35     3    32    1
    36     4    33    1
    37     5    34    1
    38     6    35    1
    39     7    36    1
    40     8    37    1
    41     9    38    1
    42    10    39    1
    43    21    40    1
    44    21    41    1
    45    21    42    1
    46    22    43    1
    47    22    44    1
    48    22    45    1
    49    23    46    1
    50    25    47    1
    51    25    48    1
