@<TRIPOS>MOLECULE
AG-401/43339472
 30 32 0 0 0
SMALL
USER_CHARGES

@<TRIPOS>ATOM
      1 C           5.8519   -3.3939    2.6361 C.ar    1  LIG1       -0.1030
      2 C           6.3248   -3.3058    1.3268 C.ar    1  LIG1       -0.0959
      3 C           4.9523   -2.4431    3.1182 C.ar    1  LIG1       -0.0956
      4 C           5.8982   -2.2668    0.4997 C.ar    1  LIG1       -0.0659
      5 C           4.5257   -1.4042    2.2910 C.ar    1  LIG1       -0.0652
      6 C           1.4411    3.1065    0.1110 C.ar    1  LIG1       -0.0545
      7 C           0.1607    3.6081    0.3444 C.ar    1  LIG1       -0.0518
      8 C           3.7350    1.7611   -1.4694 C.ar    1  LIG1       -0.0212
      9 C           0.5056    0.9229   -0.3292 C.ar    1  LIG1       -0.0360
     10 C           4.9805    1.1816   -1.6000 C.ar    1  LIG1       -0.0189
     11 C           4.9986   -1.3160    0.9817 C.ar    1  LIG1        0.0030
     12 C           1.6136    1.7639   -0.2259 C.ar    1  LIG1       -0.0169
     13 C          -0.9472    2.7671    0.2411 C.ar    1  LIG1        0.0220
     14 C          -0.7749    1.4245   -0.0957 C.ar    1  LIG1        0.0252
     15 C           2.9390    1.2457   -0.4669 C.ar    1  LIG1       -0.0022
     16 C           4.5562   -0.2386    0.1234 C.ar    1  LIG1        0.0466
     17 N           5.4253    0.1762   -0.8179 N.ar    1  LIG1       -0.3583
     18 N           3.3191    0.2422    0.3510 N.ar    1  LIG1       -0.3452
     19 CL         -2.5070    3.4475    0.5458 Cl      1  LIG1       -0.1176
     20 CL         -2.1083    0.3328   -0.2350 Cl      1  LIG1       -0.1203
     21 H           6.1828   -4.2040    3.2793 H       1  LIG1        0.1221
     22 H           7.0239   -4.0469    0.9507 H       1  LIG1        0.1190
     23 H           4.5826   -2.5120    4.1370 H       1  LIG1        0.1193
     24 H           6.2758   -2.2119   -0.5187 H       1  LIG1        0.1403
     25 H           3.8236   -0.6707    2.6805 H       1  LIG1        0.1421
     26 H           2.2949    3.7751    0.1931 H       1  LIG1        0.1589
     27 H           0.0450    4.6573    0.6050 H       1  LIG1        0.1487
     28 H           3.4168    2.5670   -2.1189 H       1  LIG1        0.1381
     29 H           0.6419   -0.1241   -0.5933 H       1  LIG1        0.1559
     30 H           5.6764    1.5199   -2.3603 H       1  LIG1        0.2273
@<TRIPOS>BOND
     1     1     2   ar
     2     1     3   ar
     3     2     4   ar
     4     3     5   ar
     5     4    11   ar
     6     5    11   ar
     7     6     7   ar
     8     6    12   ar
     9     7    13   ar
    10     8    10   ar
    11     8    15   ar
    12     9    12   ar
    13     9    14   ar
    14    10    17   ar
    15    11    16    1
    16    12    15    1
    17    13    14   ar
    18    13    19    1
    19    14    20    1
    20    15    18   ar
    21    16    17   ar
    22    16    18   ar
    23     1    21    1
    24     2    22    1
    25     3    23    1
    26     4    24    1
    27     5    25    1
    28     6    26    1
    29     7    27    1
    30     8    28    1
    31     9    29    1
    32    10    30    1
