@<TRIPOS>MOLECULE
AI-060/41884474
 39 42 0 0 0
SMALL
USER_CHARGES

@<TRIPOS>ATOM
      1 C           5.1340   -1.2573    2.4691 C.ar    1  LIG1       -0.0708
      2 C           5.4053   -2.6892    0.5422 C.ar    1  LIG1       -0.0783
      3 C           1.5258    2.8866    0.5427 C.ar    1  LIG1       -0.0616
      4 C           0.6143    1.2751   -1.0096 C.ar    1  LIG1       -0.0761
      5 C           5.5507   -2.2969    3.3003 C.ar    1  LIG1       -0.0976
      6 C           5.8222   -3.7289    1.3734 C.ar    1  LIG1       -0.1023
      7 C           0.2582    3.4450    0.7073 C.ar    1  LIG1       -0.0629
      8 C          -0.6533    1.8335   -0.8450 C.ar    1  LIG1       -0.0745
      9 C           3.3747    0.1914    0.3750 C.ar    1  LIG1       -0.0368
     10 C           1.7037    1.8017   -0.3158 C.ar    1  LIG1       -0.0474
     11 C           5.0612   -1.4534    1.0899 C.ar    1  LIG1       -0.0290
     12 C           3.0218    1.2215   -0.4875 C.ar    1  LIG1       -0.0311
     13 C           3.9348    1.6365   -1.4534 C.ar    1  LIG1        0.0899
     14 C           5.8949   -3.5327    2.7526 C.ar    1  LIG1       -0.1193
     15 C          -0.8313    2.9184    0.0136 C.ar    1  LIG1       -0.0209
     16 C           4.6295   -0.3773    0.2295 C.ar    1  LIG1       -0.0025
     17 C           5.1773    1.0107   -1.5320 C.ar    1  LIG1        0.0555
     18 C           3.6202    2.7247   -2.3979 C.ar    1  LIG1        0.1259
     19 C           5.8537    2.3381   -3.3046 C.ar    1  LIG1       -0.0264
     20 C           6.3403   -4.6443    3.6414 C.3     1  LIG1       -0.0447
     21 N           5.5358    0.0058   -0.6995 N.ar    1  LIG1       -0.3393
     22 N           6.1475    1.3795   -2.4825 N.ar    1  LIG1       -0.3294
     23 N           4.6418    3.0078   -3.2897 N.ar    1  LIG1       -0.2580
     24 O           2.5547    3.3293   -2.4030 O.2     1  LIG1       -0.4802
     25 S           7.1392    2.7629   -4.4960 S.3     1  LIG1       -0.4227
     26 CL         -2.3948    3.6089    0.2162 Cl      1  LIG1       -0.1532
     27 H           4.8684   -0.3000    2.9113 H       1  LIG1        0.1448
     28 H           5.3545   -2.8574   -0.5310 H       1  LIG1        0.1286
     29 H           2.3652    3.3082    1.0903 H       1  LIG1        0.1490
     30 H           0.7371    0.4303   -1.6832 H       1  LIG1        0.1330
     31 H           5.6033   -2.1355    4.3738 H       1  LIG1        0.1165
     32 H           6.0889   -4.6884    0.9380 H       1  LIG1        0.1143
     33 H           0.1339    4.2914    1.3782 H       1  LIG1        0.1289
     34 H          -1.4932    1.4137   -1.3928 H       1  LIG1        0.1254
     35 H           2.6898   -0.1618    1.1414 H       1  LIG1        0.1245
     36 H           5.4799   -5.2430    3.9648 H       1  LIG1        0.0518
     37 H           7.0504   -5.3052    3.1276 H       1  LIG1        0.0545
     38 H           6.8522   -4.2605    4.5335 H       1  LIG1        0.0545
     39 H           4.4934    3.7459   -3.9715 H       1  LIG1        0.3676
@<TRIPOS>BOND
     1     1     5   ar
     2     1    11   ar
     3     2     6   ar
     4     2    11   ar
     5     3     7   ar
     6     3    10   ar
     7     4     8   ar
     8     4    10   ar
     9     5    14   ar
    10     6    14   ar
    11     7    15   ar
    12     8    15   ar
    13     9    12   ar
    14     9    16   ar
    15    10    12    1
    16    11    16    1
    17    12    13   ar
    18    13    17   ar
    19    13    18   ar
    20    14    20    1
    21    15    26    1
    22    16    21   ar
    23    17    21   ar
    24    17    22   ar
    25    18    23   ar
    26    18    24    2
    27    19    22   ar
    28    19    23   ar
    29    19    25    1
    30     1    27    1
    31     2    28    1
    32     3    29    1
    33     4    30    1
    34     5    31    1
    35     6    32    1
    36     7    33    1
    37     8    34    1
    38     9    35    1
    39    20    36    1
    40    20    37    1
    41    20    38    1
    42    23    39    1
