@<TRIPOS>MOLECULE
AO-476/43380440
 38 41 0 0 0
SMALL
USER_CHARGES

@<TRIPOS>ATOM
      1 C           5.9648   -3.5870    2.7715 C.ar    1  LIG1       -0.1027
      2 C           5.6077   -2.3663    3.3440 C.ar    1  LIG1       -0.0989
      3 C           5.8576   -3.7687    1.3926 C.ar    1  LIG1       -0.0956
      4 C          -0.7173    2.2157   -0.3333 C.ar    1  LIG1       -0.1042
      5 C           5.1431   -1.3272    2.5377 C.ar    1  LIG1       -0.0779
      6 C           5.3932   -2.7296    0.5863 C.ar    1  LIG1       -0.0720
      7 C           0.3565    1.3712   -0.7380 C.ar    1  LIG1       -0.0945
      8 C           3.2849    0.0922    0.5294 C.ar    1  LIG1       -0.0163
      9 C          -0.3074    3.1832    0.5576 C.ar    1  LIG1       -0.0469
     10 C           3.7207    1.5910   -1.2850 C.ar    1  LIG1        0.0431
     11 C           5.0360   -1.5088    1.1588 C.ar    1  LIG1       -0.0260
     12 C           2.8458    1.1304   -0.2900 C.ar    1  LIG1       -0.0290
     13 C           3.6897    2.5829   -2.2972 C.ar    1  LIG1       -0.0195
     14 C           4.5545   -0.4314    0.3232 C.ar    1  LIG1        0.0114
     15 C           1.5466    1.7255   -0.1411 C.ar    1  LIG1       -0.0224
     16 C           4.9031    2.5136   -2.9410 C.ar    1  LIG1        0.1245
     17 C           4.9678    0.9765   -1.3834 C.ar    1  LIG1        0.1105
     18 C           5.4426    3.2562   -4.0305 C.2     1  LIG1        0.0977
     19 C           6.8407    2.9239   -4.5103 C.3     1  LIG1        0.0401
     20 N           5.4382   -0.0274   -0.6186 N.ar    1  LIG1       -0.3230
     21 N           2.6833    3.4346   -2.5877 N.pl3   1  LIG1       -0.3906
     22 O           4.8700    4.1815   -4.6460 O.2     1  LIG1       -0.4747
     23 O           5.6840    1.5448   -2.3963 O.2     1  LIG1       -0.3078
     24 S           1.3661    3.0711    0.9025 S.2     1  LIG1       -0.1328
     25 H           6.3281   -4.3954    3.3993 H       1  LIG1        0.1221
     26 H           5.6926   -2.2241    4.4173 H       1  LIG1        0.1199
     27 H           6.1370   -4.7185    0.9460 H       1  LIG1        0.1204
     28 H          -1.7385    2.1193   -0.6782 H       1  LIG1        0.1208
     29 H           4.8688   -0.3813    2.9991 H       1  LIG1        0.1296
     30 H           5.3155   -2.8856   -0.4870 H       1  LIG1        0.1426
     31 H           0.2531    0.5478   -1.4339 H       1  LIG1        0.1305
     32 H           2.6425   -0.2985    1.3150 H       1  LIG1        0.1519
     33 H          -0.9105    3.9507    1.0219 H       1  LIG1        0.1733
     34 H           6.8599    2.1540   -5.2977 H       1  LIG1        0.0703
     35 H           7.5012    2.5823   -3.6984 H       1  LIG1        0.0848
     36 H           7.3786    3.7759   -4.9632 H       1  LIG1        0.0849
     37 H           1.7787    3.4026   -2.0947 H       1  LIG1        0.2709
     38 H           2.7347    4.0943   -3.3779 H       1  LIG1        0.2854
@<TRIPOS>BOND
     1     1     2   ar
     2     1     3   ar
     3     2     5   ar
     4     3     6   ar
     5     4     7   ar
     6     4     9   ar
     7     5    11   ar
     8     6    11   ar
     9     7    15   ar
    10     8    12   ar
    11     8    14   ar
    12     9    24   ar
    13    10    12   ar
    14    10    13   ar
    15    10    17   ar
    16    11    14    1
    17    12    15    1
    18    13    16   ar
    19    13    21    1
    20    14    20   ar
    21    15    24   ar
    22    16    18    1
    23    16    23   ar
    24    17    20   ar
    25    17    23   ar
    26    18    19    1
    27    18    22    2
    28     1    25    1
    29     2    26    1
    30     3    27    1
    31     4    28    1
    32     5    29    1
    33     6    30    1
    34     7    31    1
    35     8    32    1
    36     9    33    1
    37    19    34    1
    38    19    35    1
    39    19    36    1
    40    21    37    1
    41    21    38    1
