@<TRIPOS>MOLECULE
AN-989/42063253
 36 39 0 0 0
SMALL
USER_CHARGES

@<TRIPOS>ATOM
      1 C           4.7238   -1.3553    2.1248 C.ar    1  LIG1       -0.0682
      2 C           6.0733   -2.1539    0.2868 C.ar    1  LIG1       -0.0742
      3 C           0.3739    1.0849   -0.4253 C.ar    1  LIG1       -0.0612
      4 C           1.3116    3.2595    0.0531 C.ar    1  LIG1       -0.0648
      5 C           5.1934   -2.3984    2.9228 C.ar    1  LIG1       -0.0915
      6 C           6.5428   -3.1971    1.0848 C.ar    1  LIG1       -0.0948
      7 C          -0.9085    1.5918   -0.2155 C.ar    1  LIG1       -0.0380
      8 C           0.0292    3.7664    0.2628 C.ar    1  LIG1       -0.0383
      9 C           4.5734    2.9189   -3.1017 C.ar    1  LIG1        0.0630
     10 C           1.4840    1.9188   -0.2909 C.ar    1  LIG1       -0.0202
     11 C           5.1637   -1.2330    0.8068 C.ar    1  LIG1       -0.0192
     12 C           6.1029   -3.3193    2.4028 C.ar    1  LIG1       -0.1123
     13 C          -1.0809    2.9325    0.1286 C.ar    1  LIG1        0.0699
     14 C           4.9477    1.3603   -1.7467 C.ar    1  LIG1        0.1209
     15 C           3.2819    0.3730    0.2554 C.ar    1  LIG1        0.0181
     16 C           2.8396    1.3835   -0.5126 C.ar    1  LIG1        0.0365
     17 C           4.6642   -0.1210   -0.0447 C.ar    1  LIG1        0.0277
     18 C           6.6056   -4.4341    3.2570 C.3     1  LIG1       -0.0398
     19 N           5.5135    2.0076   -2.7455 N.ar    1  LIG1       -0.3084
     20 N           3.4462    2.8954   -2.3972 N.ar    1  LIG1       -0.2993
     21 N           5.4333    0.3373   -0.9901 N.ar    1  LIG1       -0.2935
     22 N           3.6734    1.8852   -1.5180 N.ar    1  LIG1       -0.2242
     23 F          -2.3124    3.4198    0.3284 F       1  LIG1       -0.2601
     24 H           4.0154   -0.6429    2.5396 H       1  LIG1        0.1470
     25 H           6.4228   -2.0685   -0.7388 H       1  LIG1        0.1338
     26 H           0.4924    0.0377   -0.6932 H       1  LIG1        0.1666
     27 H           2.1670    3.9222    0.1615 H       1  LIG1        0.1495
     28 H           4.8455   -2.4859    3.9486 H       1  LIG1        0.1233
     29 H           7.2518   -3.9099    0.6717 H       1  LIG1        0.1230
     30 H          -1.7730    0.9430   -0.3201 H       1  LIG1        0.1376
     31 H          -0.1053    4.8104    0.5304 H       1  LIG1        0.1392
     32 H           4.7123    3.6284   -3.9037 H       1  LIG1        0.3126
     33 H           2.7067   -0.0775    1.0556 H       1  LIG1        0.1669
     34 H           5.9547   -5.3117    3.1612 H       1  LIG1        0.0603
     35 H           7.6254   -4.7244    2.9734 H       1  LIG1        0.0561
     36 H           6.6412   -4.1407    4.3143 H       1  LIG1        0.0563
@<TRIPOS>BOND
     1     1     5   ar
     2     1    11   ar
     3     2     6   ar
     4     2    11   ar
     5     3     7   ar
     6     3    10   ar
     7     4     8   ar
     8     4    10   ar
     9     5    12   ar
    10     6    12   ar
    11     7    13   ar
    12     8    13   ar
    13     9    19   ar
    14     9    20   ar
    15    10    16    1
    16    11    17    1
    17    12    18    1
    18    13    23    1
    19    14    19   ar
    20    14    21   ar
    21    14    22   ar
    22    15    16   ar
    23    15    17   ar
    24    16    22   ar
    25    17    21   ar
    26    20    22   ar
    27     1    24    1
    28     2    25    1
    29     3    26    1
    30     4    27    1
    31     5    28    1
    32     6    29    1
    33     7    30    1
    34     8    31    1
    35     9    32    1
    36    15    33    1
    37    18    34    1
    38    18    35    1
    39    18    36    1
