@<TRIPOS>MOLECULE
AG-690/40750127
 42 44 0 0 0
SMALL
USER_CHARGES

@<TRIPOS>ATOM
      1 C           2.9918    2.8977   -2.2045 C.1     1  LIG1        0.0759
      2 C           4.4911   -1.4321    2.3402 C.ar    1  LIG1       -0.0780
      3 C           5.8078   -2.1737    0.4553 C.ar    1  LIG1       -0.0737
      4 C           0.1864    1.0089   -0.2319 C.ar    1  LIG1       -0.0756
      5 C           1.1259    3.1900    0.2120 C.ar    1  LIG1       -0.0742
      6 C           5.0117   -2.4705    3.1124 C.ar    1  LIG1       -0.0975
      7 C           6.3286   -3.2121    1.2275 C.ar    1  LIG1       -0.0952
      8 C          -1.0936    1.5138   -0.0034 C.ar    1  LIG1       -0.0662
      9 C          -0.1540    3.6949    0.4405 C.ar    1  LIG1       -0.0660
     10 C           3.0774    0.2859    0.4464 C.ar    1  LIG1       -0.0187
     11 C           3.4457    1.8266   -1.3633 C.ar    1  LIG1        0.1150
     12 C           1.2963    1.8470   -0.1242 C.ar    1  LIG1       -0.0528
     13 C           4.8892   -1.2838    1.0116 C.ar    1  LIG1       -0.0314
     14 C           2.6241    1.3232   -0.3609 C.ar    1  LIG1       -0.0070
     15 C           5.9305   -3.3605    2.5562 C.ar    1  LIG1       -0.1147
     16 C          -1.2639    2.8568    0.3329 C.ar    1  LIG1       -0.0111
     17 C           4.3501   -0.2093    0.2124 C.ar    1  LIG1       -0.0031
     18 C           4.7020    1.2625   -1.5161 C.ar    1  LIG1        0.0558
     19 C           6.4869   -4.4708    3.3817 C.3     1  LIG1       -0.0414
     20 C           5.5972    1.4106   -5.4624 C.3     1  LIG1       -0.0500
     21 C           5.3642    0.7368   -4.1235 C.3     1  LIG1       -0.0003
     22 N           2.6249    3.7636   -2.8845 N.1     1  LIG1       -0.3589
     23 N           5.1771    0.2540   -0.7515 N.ar    1  LIG1       -0.3600
     24 S           5.8490    1.8291   -2.7714 S.3     1  LIG1       -0.1271
     25 CL         -2.8435    3.4787    0.6163 Cl      1  LIG1       -0.1373
     26 H           3.7753   -0.7469    2.7881 H       1  LIG1        0.1311
     27 H           6.1285   -2.0709   -0.5787 H       1  LIG1        0.1395
     28 H           0.3030   -0.0402   -0.4931 H       1  LIG1        0.1353
     29 H           1.9813    3.8558    0.3006 H       1  LIG1        0.1417
     30 H           4.6951   -2.5792    4.1464 H       1  LIG1        0.1208
     31 H           7.0443   -3.9006    0.7861 H       1  LIG1        0.1199
     32 H          -1.9497    0.8491   -0.0889 H       1  LIG1        0.1381
     33 H          -0.2718    4.7433    0.7030 H       1  LIG1        0.1386
     34 H           2.4554   -0.1251    1.2369 H       1  LIG1        0.1504
     35 H           5.8576   -5.3648    3.2936 H       1  LIG1        0.0590
     36 H           7.5058   -4.7302    3.0660 H       1  LIG1        0.0552
     37 H           6.5449   -4.1891    4.4413 H       1  LIG1        0.0550
     38 H           5.0222    2.3386   -5.5510 H       1  LIG1        0.0430
     39 H           6.6566    1.6408   -5.6182 H       1  LIG1        0.0524
     40 H           5.2801    0.7468   -6.2737 H       1  LIG1        0.0430
     41 H           5.9473   -0.1866   -4.0571 H       1  LIG1        0.0852
     42 H           4.3069    0.4803   -4.0073 H       1  LIG1        0.0852
@<TRIPOS>BOND
     1     1    11    1
     2     1    22    3
     3     2     6   ar
     4     2    13   ar
     5     3     7   ar
     6     3    13   ar
     7     4     8   ar
     8     4    12   ar
     9     5     9   ar
    10     5    12   ar
    11     6    15   ar
    12     7    15   ar
    13     8    16   ar
    14     9    16   ar
    15    10    14   ar
    16    10    17   ar
    17    11    14   ar
    18    11    18   ar
    19    12    14    1
    20    13    17    1
    21    15    19    1
    22    16    25    1
    23    17    23   ar
    24    18    23   ar
    25    18    24    1
    26    20    21    1
    27    21    24    1
    28     2    26    1
    29     3    27    1
    30     4    28    1
    31     5    29    1
    32     6    30    1
    33     7    31    1
    34     8    32    1
    35     9    33    1
    36    10    34    1
    37    19    35    1
    38    19    36    1
    39    19    37    1
    40    20    38    1
    41    20    39    1
    42    20    40    1
    43    21    41    1
    44    21    42    1
