@<TRIPOS>MOLECULE
AG-205/33125019
 40 42 0 0 0
SMALL
USER_CHARGES

@<TRIPOS>ATOM
      1 C           3.0414    2.8445   -2.1782 C.1     1  LIG1        0.0763
      2 C           5.9458   -3.4140    2.6033 C.ar    1  LIG1       -0.1028
      3 C           5.5702   -2.2132    3.2056 C.ar    1  LIG1       -0.0988
      4 C           5.8062   -3.5764    1.2249 C.ar    1  LIG1       -0.0965
      5 C           5.0551   -1.1750    2.4296 C.ar    1  LIG1       -0.0791
      6 C           5.2910   -2.5381    0.4489 C.ar    1  LIG1       -0.0748
      7 C           0.2242    0.9678   -0.2112 C.ar    1  LIG1       -0.0748
      8 C           1.1690    3.1470    0.2314 C.ar    1  LIG1       -0.0734
      9 C          -1.0550    1.4771    0.0119 C.ar    1  LIG1       -0.0740
     10 C          -0.1103    3.6563    0.4544 C.ar    1  LIG1       -0.0737
     11 C           3.1105    0.2370    0.4776 C.ar    1  LIG1       -0.0179
     12 C           3.4893    1.7733   -1.3336 C.ar    1  LIG1        0.1156
     13 C           1.3363    1.8028   -0.1014 C.ar    1  LIG1       -0.0514
     14 C           4.9154   -1.3375    1.0512 C.ar    1  LIG1       -0.0318
     15 C           2.6629    1.2743   -0.3329 C.ar    1  LIG1       -0.0054
     16 C          -1.2222    2.8214    0.3447 C.ar    1  LIG1       -0.0363
     17 C           4.3824   -0.2626    0.2485 C.ar    1  LIG1       -0.0025
     18 C           4.7443    1.2051   -1.4816 C.ar    1  LIG1        0.0588
     19 C           8.8907    0.0137   -4.1829 C.2     1  LIG1       -0.1272
     20 C           8.4034    0.9173   -3.3250 C.2     1  LIG1       -0.1221
     21 C           7.2713    0.6493   -2.3862 C.3     1  LIG1        0.0145
     22 N           2.6794    3.7104   -2.8607 N.1     1  LIG1       -0.3580
     23 N           5.2138    0.1964   -0.7137 N.ar    1  LIG1       -0.3596
     24 S           5.8971    1.7659   -2.7341 S.3     1  LIG1       -0.1152
     25 BR         -2.9553    3.5123    0.6462 Br      1  LIG1       -0.1051
     26 H           6.3485   -4.2216    3.2075 H       1  LIG1        0.1220
     27 H           5.6804   -2.0860    4.2785 H       1  LIG1        0.1203
     28 H           6.0997   -4.5106    0.7551 H       1  LIG1        0.1194
     29 H           4.7671   -0.2448    2.9139 H       1  LIG1        0.1297
     30 H           5.1885   -2.6791   -0.6244 H       1  LIG1        0.1381
     31 H           0.3384   -0.0822   -0.4698 H       1  LIG1        0.1345
     32 H           2.0258    3.8106    0.3199 H       1  LIG1        0.1410
     33 H          -1.9111    0.8134   -0.0783 H       1  LIG1        0.1397
     34 H          -0.2233    4.7058    0.7130 H       1  LIG1        0.1403
     35 H           2.4846   -0.1706    1.2668 H       1  LIG1        0.1514
     36 H           9.7143    0.2486   -4.8479 H       1  LIG1        0.0919
     37 H           8.4657   -0.9830   -4.2309 H       1  LIG1        0.0874
     38 H           8.8390    1.9138   -3.3216 H       1  LIG1        0.0992
     39 H           7.5686    0.7781   -1.3405 H       1  LIG1        0.0982
     40 H           6.9281   -0.3823   -2.5114 H       1  LIG1        0.1020
@<TRIPOS>BOND
     1     1    12    1
     2     1    22    3
     3     2     3   ar
     4     2     4   ar
     5     3     5   ar
     6     4     6   ar
     7     5    14   ar
     8     6    14   ar
     9     7     9   ar
    10     7    13   ar
    11     8    10   ar
    12     8    13   ar
    13     9    16   ar
    14    10    16   ar
    15    11    15   ar
    16    11    17   ar
    17    12    15   ar
    18    12    18   ar
    19    13    15    1
    20    14    17    1
    21    16    25    1
    22    17    23   ar
    23    18    23   ar
    24    18    24    1
    25    19    20    2
    26    20    21    1
    27    21    24    1
    28     2    26    1
    29     3    27    1
    30     4    28    1
    31     5    29    1
    32     6    30    1
    33     7    31    1
    34     8    32    1
    35     9    33    1
    36    10    34    1
    37    11    35    1
    38    19    36    1
    39    19    37    1
    40    20    38    1
    41    21    39    1
    42    21    40    1
