@<TRIPOS>MOLECULE
AE-641/00376063
 31 33 0 0 0
SMALL
USER_CHARGES

@<TRIPOS>ATOM
      1 C          -1.1837    3.0025    0.1336 C.ar    1  LIG1       -0.1063
      2 C           6.0854   -3.3456    2.4469 C.ar    1  LIG1       -0.1010
      3 C          -0.0628    3.7021   -0.3131 C.ar    1  LIG1       -0.1000
      4 C          -1.0655    1.6657    0.5141 C.ar    1  LIG1       -0.0999
      5 C           5.8419   -3.4582    1.0780 C.ar    1  LIG1       -0.0904
      6 C           5.6731   -2.2058    3.1371 C.ar    1  LIG1       -0.0957
      7 C           1.1763    3.0650   -0.3795 C.ar    1  LIG1       -0.0756
      8 C           0.1736    1.0286    0.4477 C.ar    1  LIG1       -0.0760
      9 C           5.1861   -2.4310    0.3995 C.ar    1  LIG1       -0.0519
     10 C           5.0174   -1.1785    2.4587 C.ar    1  LIG1       -0.0598
     11 C           3.6120    1.3510   -0.9720 C.ar    1  LIG1       -0.0251
     12 C           1.2945    1.7282    0.0009 C.ar    1  LIG1       -0.0346
     13 C           4.7739   -1.2911    1.0898 C.ar    1  LIG1       -0.0064
     14 C           2.5700    1.0720   -0.0675 C.ar    1  LIG1        0.0021
     15 C           4.6057    0.4647   -0.6351 C.ar    1  LIG1       -0.0238
     16 N           2.8735    0.0854    0.7803 N.ar    1  LIG1       -0.3207
     17 N           4.1174   -0.2632    0.4098 N.ar    1  LIG1       -0.2773
     18 N           5.8372    0.2584   -1.1486 N.pl3   1  LIG1       -0.3876
     19 H          -2.1483    3.4987    0.1864 H       1  LIG1        0.1167
     20 H           6.5943   -4.1459    2.9759 H       1  LIG1        0.1198
     21 H          -0.1542    4.7433   -0.6082 H       1  LIG1        0.1170
     22 H          -1.9382    1.1215    0.8630 H       1  LIG1        0.1177
     23 H           6.1616   -4.3462    0.5406 H       1  LIG1        0.1291
     24 H           5.8620   -2.1195    4.2034 H       1  LIG1        0.1283
     25 H           2.0409    3.6241   -0.7300 H       1  LIG1        0.1309
     26 H           0.2490   -0.0140    0.7479 H       1  LIG1        0.1298
     27 H           5.0018   -2.5318   -0.6673 H       1  LIG1        0.1377
     28 H           4.7008   -0.2959    3.0091 H       1  LIG1        0.1258
     29 H           3.6419    2.0908   -1.7594 H       1  LIG1        0.1154
     30 H           6.1829    0.7774   -1.9692 H       1  LIG1        0.2731
     31 H           6.4552   -0.4918   -0.8057 H       1  LIG1        0.2887
@<TRIPOS>BOND
     1     1     3   ar
     2     1     4   ar
     3     2     5   ar
     4     2     6   ar
     5     3     7   ar
     6     4     8   ar
     7     5     9   ar
     8     6    10   ar
     9     7    12   ar
    10     8    12   ar
    11     9    13   ar
    12    10    13   ar
    13    11    14   ar
    14    11    15   ar
    15    12    14    1
    16    13    17    1
    17    14    16   ar
    18    15    17   ar
    19    15    18    1
    20    16    17   ar
    21     1    19    1
    22     2    20    1
    23     3    21    1
    24     4    22    1
    25     5    23    1
    26     6    24    1
    27     7    25    1
    28     8    26    1
    29     9    27    1
    30    10    28    1
    31    11    29    1
    32    18    30    1
    33    18    31    1
