@<TRIPOS>MOLECULE
AO-476/43249986
 44 48 0 0 0
SMALL
USER_CHARGES

@<TRIPOS>ATOM
      1 C           0.3949   -0.7386    3.2688 C.ar    1  LIG1       -0.0982
      2 C          -1.5201    2.5698    0.7689 C.ar    1  LIG1       -0.1013
      3 C           0.9063    0.5582    3.2227 C.ar    1  LIG1       -0.0917
      4 C           0.8338   -1.6944    2.3525 C.ar    1  LIG1       -0.0960
      5 C          -1.1496    1.3757    0.1505 C.ar    1  LIG1       -0.0948
      6 C          -0.6395    3.6515    0.7808 C.ar    1  LIG1       -0.0961
      7 C           5.8190   -3.6141    1.2370 C.ar    1  LIG1       -0.0780
      8 C           5.9625   -3.4356    2.6129 C.ar    1  LIG1       -0.0806
      9 C           1.8568    0.8994    2.2605 C.ar    1  LIG1       -0.0737
     10 C           1.7842   -1.3532    1.3901 C.ar    1  LIG1       -0.0794
     11 C           0.1015    1.2633   -0.4561 C.ar    1  LIG1       -0.0714
     12 C           0.6116    3.5391    0.1744 C.ar    1  LIG1       -0.0718
     13 C           5.3316   -2.5738    0.4458 C.ar    1  LIG1       -0.0376
     14 C           5.6185   -2.2168    3.1977 C.ar    1  LIG1       -0.0281
     15 C           2.2956   -0.0563    1.3442 C.ar    1  LIG1       -0.0347
     16 C           0.9821    2.3450   -0.4441 C.ar    1  LIG1       -0.0150
     17 C           3.2555    1.2386   -0.6496 C.ar    1  LIG1        0.0563
     18 C           4.9875   -1.3551    1.0306 C.ar    1  LIG1        0.0654
     19 C           5.1311   -1.1766    2.4065 C.ar    1  LIG1        0.1210
     20 C           3.2818    0.2973    0.3470 C.ar    1  LIG1        0.0292
     21 C           4.5032    1.1302   -1.2783 C.ar    1  LIG1        0.1386
     22 C           2.3058    2.2260   -1.0857 C.ar    1  LIG1        0.0481
     23 C           4.8607    2.0035   -2.3627 C.ar    1  LIG1        0.1832
     24 N           5.2739    0.1767   -0.7537 N.ar    1  LIG1       -0.2603
     25 N           2.6324    3.0348   -2.0549 N.ar    1  LIG1       -0.2981
     26 N           4.5009   -0.3155    0.2350 N.ar    1  LIG1       -0.2441
     27 N           3.8622    2.9247   -2.6688 N.ar    1  LIG1       -0.2277
     28 O           5.9376    1.9406   -2.9471 O.2     1  LIG1       -0.4454
     29 F           4.8046   -0.0101    2.9817 F       1  LIG1       -0.2423
     30 H          -0.3446   -1.0044    4.0185 H       1  LIG1        0.1240
     31 H          -2.4942    2.6573    1.2411 H       1  LIG1        0.1206
     32 H           0.5643    1.3024    3.9362 H       1  LIG1        0.1246
     33 H           0.4364   -2.7046    2.3891 H       1  LIG1        0.1219
     34 H          -1.8353    0.5335    0.1415 H       1  LIG1        0.1195
     35 H          -0.9281    4.5813    1.2621 H       1  LIG1        0.1195
     36 H           6.0875   -4.5628    0.7818 H       1  LIG1        0.1385
     37 H           6.3423   -4.2459    3.2284 H       1  LIG1        0.1452
     38 H           2.2477    1.9138    2.2392 H       1  LIG1        0.1327
     39 H           2.1153   -2.1093    0.6824 H       1  LIG1        0.1229
     40 H           0.3800    0.3282   -0.9351 H       1  LIG1        0.1289
     41 H           1.2897    4.3885    0.1899 H       1  LIG1        0.1329
     42 H           5.2254   -2.7266   -0.6255 H       1  LIG1        0.1528
     43 H           5.7298   -2.0780    4.2690 H       1  LIG1        0.1458
     44 H           4.0593    3.5805   -3.4184 H       1  LIG1        0.3946
@<TRIPOS>BOND
     1     1     3   ar
     2     1     4   ar
     3     2     5   ar
     4     2     6   ar
     5     3     9   ar
     6     4    10   ar
     7     5    11   ar
     8     6    12   ar
     9     7     8   ar
    10     7    13   ar
    11     8    14   ar
    12     9    15   ar
    13    10    15   ar
    14    11    16   ar
    15    12    16   ar
    16    13    18   ar
    17    14    19   ar
    18    15    20    1
    19    16    22    1
    20    17    20   ar
    21    17    21   ar
    22    17    22   ar
    23    18    19   ar
    24    18    26    1
    25    19    29    1
    26    20    26   ar
    27    21    23   ar
    28    21    24   ar
    29    22    25   ar
    30    23    27   ar
    31    23    28    2
    32    24    26   ar
    33    25    27   ar
    34     1    30    1
    35     2    31    1
    36     3    32    1
    37     4    33    1
    38     5    34    1
    39     6    35    1
    40     7    36    1
    41     8    37    1
    42     9    38    1
    43    10    39    1
    44    11    40    1
    45    12    41    1
    46    13    42    1
    47    14    43    1
    48    27    44    1
