@<TRIPOS>MOLECULE
AG-690/40749964
 45 47 0 0 0
SMALL
USER_CHARGES

@<TRIPOS>ATOM
      1 C           2.9918    2.8977   -2.2045 C.1     1  LIG1        0.0757
      2 C           5.0327   -1.1236    2.3898 C.ar    1  LIG1       -0.0737
      3 C           5.2663   -2.4822    0.4057 C.ar    1  LIG1       -0.0780
      4 C           0.1864    1.0089   -0.2320 C.ar    1  LIG1       -0.0756
      5 C           1.1259    3.1900    0.2120 C.ar    1  LIG1       -0.0742
      6 C           5.5533   -2.1620    3.1621 C.ar    1  LIG1       -0.0953
      7 C           5.7869   -3.5206    1.1780 C.ar    1  LIG1       -0.0976
      8 C          -1.0936    1.5138   -0.0034 C.ar    1  LIG1       -0.0662
      9 C          -0.1540    3.6949    0.4406 C.ar    1  LIG1       -0.0660
     10 C           3.0774    0.2859    0.4463 C.ar    1  LIG1       -0.0188
     11 C           3.4457    1.8266   -1.3633 C.ar    1  LIG1        0.1154
     12 C           1.2963    1.8470   -0.1242 C.ar    1  LIG1       -0.0529
     13 C           4.8892   -1.2838    1.0116 C.ar    1  LIG1       -0.0315
     14 C           2.6241    1.3232   -0.3609 C.ar    1  LIG1       -0.0070
     15 C           5.9304   -3.3604    2.5562 C.ar    1  LIG1       -0.1148
     16 C          -1.2639    2.8568    0.3329 C.ar    1  LIG1       -0.0112
     17 C           4.3501   -0.2093    0.2124 C.ar    1  LIG1       -0.0026
     18 C           4.7020    1.2626   -1.5161 C.ar    1  LIG1        0.0577
     19 C           6.4869   -4.4707    3.3819 C.3     1  LIG1       -0.0414
     20 C           6.6656    3.0674   -0.4835 C.3     1  LIG1       -0.0520
     21 C           8.0436    1.1297   -1.3125 C.3     1  LIG1       -0.0503
     22 C           7.2131    2.3446   -1.7085 C.3     1  LIG1       -0.0099
     23 N           2.6249    3.7637   -2.8844 N.1     1  LIG1       -0.3592
     24 N           5.1771    0.2540   -0.7515 N.ar    1  LIG1       -0.3581
     25 S           5.8490    1.8292   -2.7714 S.3     1  LIG1       -0.1257
     26 CL         -2.8435    3.4786    0.6164 Cl      1  LIG1       -0.1374
     27 H           4.7427   -0.1957    2.8769 H       1  LIG1        0.1400
     28 H           5.1611   -2.6221   -0.6676 H       1  LIG1        0.1309
     29 H           0.3030   -0.0402   -0.4931 H       1  LIG1        0.1352
     30 H           1.9813    3.8558    0.3007 H       1  LIG1        0.1416
     31 H           5.6606   -2.0288    4.2353 H       1  LIG1        0.1196
     32 H           6.0787   -4.4508    0.6975 H       1  LIG1        0.1206
     33 H          -1.9497    0.8491   -0.0889 H       1  LIG1        0.1379
     34 H          -0.2718    4.7433    0.7031 H       1  LIG1        0.1385
     35 H           2.4554   -0.1252    1.2368 H       1  LIG1        0.1501
     36 H           5.6806   -5.1252    3.7350 H       1  LIG1        0.0589
     37 H           7.1999   -5.0760    2.8073 H       1  LIG1        0.0551
     38 H           7.0293   -4.0847    4.2550 H       1  LIG1        0.0549
     39 H           6.0363    2.3923    0.1071 H       1  LIG1        0.0423
     40 H           7.4743    3.4137    0.1696 H       1  LIG1        0.0518
     41 H           6.0516    3.9322   -0.7596 H       1  LIG1        0.0384
     42 H           7.4354    0.4248   -0.7346 H       1  LIG1        0.0445
     43 H           8.8950    1.4159   -0.6851 H       1  LIG1        0.0536
     44 H           8.4263    0.5931   -2.1881 H       1  LIG1        0.0444
     45 H           7.8382    3.0355   -2.2841 H       1  LIG1        0.0923
@<TRIPOS>BOND
     1     1    11    1
     2     1    23    3
     3     2     6   ar
     4     2    13   ar
     5     3     7   ar
     6     3    13   ar
     7     4     8   ar
     8     4    12   ar
     9     5     9   ar
    10     5    12   ar
    11     6    15   ar
    12     7    15   ar
    13     8    16   ar
    14     9    16   ar
    15    10    14   ar
    16    10    17   ar
    17    11    14   ar
    18    11    18   ar
    19    12    14    1
    20    13    17    1
    21    15    19    1
    22    16    26    1
    23    17    24   ar
    24    18    24   ar
    25    18    25    1
    26    20    22    1
    27    21    22    1
    28    22    25    1
    29     2    27    1
    30     3    28    1
    31     4    29    1
    32     5    30    1
    33     6    31    1
    34     7    32    1
    35     8    33    1
    36     9    34    1
    37    10    35    1
    38    19    36    1
    39    19    37    1
    40    19    38    1
    41    20    39    1
    42    20    40    1
    43    20    41    1
    44    21    42    1
    45    21    43    1
    46    21    44    1
    47    22    45    1
