@<TRIPOS>MOLECULE
AO-476/43249984
 47 51 0 0 0
SMALL
USER_CHARGES

@<TRIPOS>ATOM
      1 C           0.3951   -0.7415    3.2668 C.ar    1  LIG1       -0.0986
      2 C          -1.5198    2.5687    0.7694 C.ar    1  LIG1       -0.1014
      3 C           0.9066    0.5554    3.2218 C.ar    1  LIG1       -0.0923
      4 C           0.8342   -1.6966    2.3498 C.ar    1  LIG1       -0.0961
      5 C          -1.1493    1.3751    0.1500 C.ar    1  LIG1       -0.0948
      6 C          -0.6393    3.6505    0.7822 C.ar    1  LIG1       -0.0962
      7 C           1.8570    0.8973    2.2598 C.ar    1  LIG1       -0.0743
      8 C           1.7846   -1.3546    1.3877 C.ar    1  LIG1       -0.0791
      9 C           0.1018    1.2632   -0.4565 C.ar    1  LIG1       -0.0713
     10 C           0.6118    3.5386    0.1757 C.ar    1  LIG1       -0.0719
     11 C           5.6157   -2.2150    3.1975 C.ar    1  LIG1       -0.0847
     12 C           5.8199   -3.6145    1.2387 C.ar    1  LIG1       -0.0857
     13 C           5.1292   -1.1758    2.4044 C.ar    1  LIG1       -0.0482
     14 C           5.3333   -2.5753    0.4455 C.ar    1  LIG1       -0.0500
     15 C           2.2960   -0.0576    1.3428 C.ar    1  LIG1       -0.0351
     16 C           0.9824    2.3450   -0.4437 C.ar    1  LIG1       -0.0150
     17 C           3.2559    1.2389   -0.6499 C.ar    1  LIG1        0.0550
     18 C           5.9610   -3.4344    2.6146 C.ar    1  LIG1       -0.1076
     19 C           4.9880   -1.3560    1.0284 C.ar    1  LIG1        0.0105
     20 C           3.2822    0.2968    0.3459 C.ar    1  LIG1        0.0291
     21 C           4.5036    1.1311   -1.2787 C.ar    1  LIG1        0.1363
     22 C           2.3061    2.2266   -1.0853 C.ar    1  LIG1        0.0475
     23 C           4.8611    2.0052   -2.3624 C.ar    1  LIG1        0.1817
     24 C           6.4812   -4.5454    3.4625 C.3     1  LIG1       -0.0392
     25 N           5.2744    0.1772   -0.7547 N.ar    1  LIG1       -0.2623
     26 N           2.6328    3.0361   -2.0539 N.ar    1  LIG1       -0.2988
     27 N           4.5013   -0.3158    0.2336 N.ar    1  LIG1       -0.2511
     28 N           3.8626    2.9266   -2.6678 N.ar    1  LIG1       -0.2283
     29 O           5.9380    1.9428   -2.9467 O.2     1  LIG1       -0.4469
     30 H          -0.3444   -1.0079    4.0163 H       1  LIG1        0.1235
     31 H          -2.4940    2.6558    1.2416 H       1  LIG1        0.1204
     32 H           0.5644    1.2990    3.9357 H       1  LIG1        0.1242
     33 H           0.4369   -2.7068    2.3856 H       1  LIG1        0.1217
     34 H          -1.8349    0.5329    0.1403 H       1  LIG1        0.1195
     35 H          -0.9280    4.5799    1.2642 H       1  LIG1        0.1194
     36 H           2.2479    1.9118    2.2394 H       1  LIG1        0.1318
     37 H           2.1158   -2.1101    0.6794 H       1  LIG1        0.1243
     38 H           0.3804    0.3285   -0.9363 H       1  LIG1        0.1291
     39 H           1.2898    4.3880    0.1919 H       1  LIG1        0.1327
     40 H           5.7227   -2.0665    4.2687 H       1  LIG1        0.1328
     41 H           6.0866   -4.5610    0.7759 H       1  LIG1        0.1329
     42 H           4.8644   -0.2301    2.8711 H       1  LIG1        0.1453
     43 H           5.2288   -2.7298   -0.6257 H       1  LIG1        0.1412
     44 H           5.6547   -5.1702    3.8226 H       1  LIG1        0.0611
     45 H           7.1792   -5.1811    2.9024 H       1  LIG1        0.0573
     46 H           7.0303   -4.1600    4.3316 H       1  LIG1        0.0571
     47 H           4.0597    3.5829   -3.4169 H       1  LIG1        0.3942
@<TRIPOS>BOND
     1     1     3   ar
     2     1     4   ar
     3     2     5   ar
     4     2     6   ar
     5     3     7   ar
     6     4     8   ar
     7     5     9   ar
     8     6    10   ar
     9     7    15   ar
    10     8    15   ar
    11     9    16   ar
    12    10    16   ar
    13    11    13   ar
    14    11    18   ar
    15    12    14   ar
    16    12    18   ar
    17    13    19   ar
    18    14    19   ar
    19    15    20    1
    20    16    22    1
    21    17    20   ar
    22    17    21   ar
    23    17    22   ar
    24    18    24    1
    25    19    27    1
    26    20    27   ar
    27    21    23   ar
    28    21    25   ar
    29    22    26   ar
    30    23    28   ar
    31    23    29    2
    32    25    27   ar
    33    26    28   ar
    34     1    30    1
    35     2    31    1
    36     3    32    1
    37     4    33    1
    38     5    34    1
    39     6    35    1
    40     7    36    1
    41     8    37    1
    42     9    38    1
    43    10    39    1
    44    11    40    1
    45    12    41    1
    46    13    42    1
    47    14    43    1
    48    24    44    1
    49    24    45    1
    50    24    46    1
    51    28    47    1
