@<TRIPOS>MOLECULE
AM-807/12426015
 45 48 0 0 0
SMALL
USER_CHARGES

@<TRIPOS>ATOM
      1 C           5.6738   -2.7534    3.1054 C.ar    1  LIG1       -0.1008
      2 C           0.4795    0.9424   -0.3173 C.ar    1  LIG1       -0.0745
      3 C           1.5019    3.0922    0.0952 C.ar    1  LIG1       -0.0752
      4 C          -0.7842    1.5198   -0.1941 C.ar    1  LIG1       -0.0419
      5 C           0.2380    3.6696    0.2183 C.ar    1  LIG1       -0.0421
      6 C           5.1911   -1.5024    2.6237 C.ar    1  LIG1       -0.0813
      7 C           3.3231    0.1060    0.5552 C.ar    1  LIG1       -0.0159
      8 C           5.8744   -3.6580    2.0860 C.ar    1  LIG1       -0.0420
      9 C           3.8330    1.5722   -1.2893 C.ar    1  LIG1        0.0173
     10 C           1.6226    1.7286   -0.1726 C.ar    1  LIG1       -0.0591
     11 C           2.9309    1.1309   -0.3000 C.ar    1  LIG1       -0.0369
     12 C           3.7401    2.5813   -2.3008 C.ar    1  LIG1       -0.0326
     13 C          -0.9050    2.8833    0.0737 C.ar    1  LIG1        0.0665
     14 C           4.5863   -0.4352    0.3943 C.ar    1  LIG1        0.0167
     15 C           5.0414   -1.4983    1.2541 C.ar    1  LIG1        0.0181
     16 C           4.8843    2.6742   -3.0623 C.ar    1  LIG1        0.1307
     17 C           5.0703    0.9383   -1.3370 C.ar    1  LIG1        0.0680
     18 C           5.1801    3.5466   -4.1550 C.2     1  LIG1        0.1896
     19 C           8.6162    4.3058   -5.0421 C.3     1  LIG1       -0.0384
     20 C           6.7562    4.5538   -6.7246 C.3     1  LIG1       -0.0346
     21 C           7.1175    4.4617   -5.2499 C.3     1  LIG1        0.0208
     22 N           5.4943   -0.0576   -0.5309 N.ar    1  LIG1       -0.3394
     23 N           2.6578    3.3723   -2.5083 N.pl3   1  LIG1       -0.3968
     24 O           4.4055    4.4134   -4.6214 O.2     1  LIG1       -0.4531
     25 O           6.4420    3.3414   -4.6682 O.3     1  LIG1       -0.3471
     26 F          -2.1186    3.4377    0.1920 F       1  LIG1       -0.2635
     27 S           5.4816   -2.9984    0.5553 S.2     1  LIG1       -0.1149
     28 S           6.0767    1.5524   -2.5690 S.2     1  LIG1       -0.0215
     29 H           5.8649   -2.9787    4.1464 H       1  LIG1        0.1179
     30 H           0.5571   -0.1221   -0.5260 H       1  LIG1        0.1443
     31 H           2.3833    3.7185    0.2105 H       1  LIG1        0.1437
     32 H          -1.6744    0.9078   -0.3065 H       1  LIG1        0.1360
     33 H           0.1433    4.7311    0.4266 H       1  LIG1        0.1370
     34 H           4.9687   -0.6522    3.2567 H       1  LIG1        0.1385
     35 H           2.6526   -0.2587    1.3293 H       1  LIG1        0.1483
     36 H           6.2334   -4.6743    2.1668 H       1  LIG1        0.1740
     37 H           8.9968    3.4141   -5.5495 H       1  LIG1        0.0442
     38 H           9.1476    5.1821   -5.4286 H       1  LIG1        0.0500
     39 H           8.8614    4.2343   -3.9767 H       1  LIG1        0.0399
     40 H           7.0925    3.6681   -7.2721 H       1  LIG1        0.0479
     41 H           7.2167    5.4396   -7.1752 H       1  LIG1        0.0578
     42 H           5.6741    4.6591   -6.8594 H       1  LIG1        0.0505
     43 H           6.7683    5.3606   -4.7313 H       1  LIG1        0.1123
     44 H           1.7934    3.2612   -1.9644 H       1  LIG1        0.2658
     45 H           2.6226    4.0508   -3.2788 H       1  LIG1        0.2752
@<TRIPOS>BOND
     1     1     6   ar
     2     1     8   ar
     3     2     4   ar
     4     2    10   ar
     5     3     5   ar
     6     3    10   ar
     7     4    13   ar
     8     5    13   ar
     9     6    15   ar
    10     7    11   ar
    11     7    14   ar
    12     8    27   ar
    13     9    11   ar
    14     9    12   ar
    15     9    17   ar
    16    10    11    1
    17    12    16   ar
    18    12    23    1
    19    13    26    1
    20    14    15    1
    21    14    22   ar
    22    15    27   ar
    23    16    18    1
    24    16    28   ar
    25    17    22   ar
    26    17    28   ar
    27    18    24    2
    28    18    25    1
    29    19    21    1
    30    20    21    1
    31    21    25    1
    32     1    29    1
    33     2    30    1
    34     3    31    1
    35     4    32    1
    36     5    33    1
    37     6    34    1
    38     7    35    1
    39     8    36    1
    40    19    37    1
    41    19    38    1
    42    19    39    1
    43    20    40    1
    44    20    41    1
    45    20    42    1
    46    21    43    1
    47    23    44    1
    48    23    45    1
