@<TRIPOS>MOLECULE
AI-031/12583049
 36 39 0 0 0
SMALL
USER_CHARGES

@<TRIPOS>ATOM
      1 C           5.7800   -3.3992    2.6847 C.ar    1  LIG1       -0.0955
      2 C           4.8839   -2.4403    3.1572 C.ar    1  LIG1       -0.0896
      3 C           6.2618   -3.3199    1.3781 C.ar    1  LIG1       -0.0862
      4 C           0.4719    1.1872    0.1070 C.ar    1  LIG1       -0.0666
      5 C           0.4501    3.5401   -0.4410 C.ar    1  LIG1       -0.0592
      6 C           4.4695   -1.4021    2.3228 C.ar    1  LIG1       -0.0561
      7 C           5.8472   -2.2817    0.5438 C.ar    1  LIG1       -0.0499
      8 C          -0.7791    1.3161    0.7104 C.ar    1  LIG1       -0.0666
      9 C          -0.8009    3.6691    0.1623 C.ar    1  LIG1       -0.0618
     10 C           3.3248    0.3402    0.2475 C.ar    1  LIG1        0.0119
     11 C           3.3729    1.2721   -0.7484 C.ar    1  LIG1        0.0255
     12 C           1.0866    2.2992   -0.4686 C.ar    1  LIG1       -0.0167
     13 C           4.6619    1.1529   -1.3840 C.ar    1  LIG1        0.0496
     14 C           4.9511   -1.3229    1.0162 C.ar    1  LIG1       -0.0009
     15 C          -1.4155    2.5570    0.7380 C.ar    1  LIG1       -0.0116
     16 C           2.3693    2.1671   -1.0866 C.ar    1  LIG1        0.0402
     17 C           4.9980    1.9936   -2.4549 C.ar    1  LIG1        0.0419
     18 C           6.2765    1.9930   -3.2088 C.3     1  LIG1        0.0159
     19 N           5.3598    0.1756   -0.7803 N.ar    1  LIG1       -0.2965
     20 N           2.7244    2.9675   -2.1269 N.ar    1  LIG1       -0.2740
     21 N           4.0206    2.8793   -2.7990 N.ar    1  LIG1       -0.2728
     22 N           4.5366   -0.2852    0.1832 N.ar    1  LIG1       -0.2719
     23 CL         -2.9585    2.7156    1.4839 Cl      1  LIG1       -0.1382
     24 H           6.1044   -4.2067    3.3345 H       1  LIG1        0.1273
     25 H           4.5098   -2.5011    4.1750 H       1  LIG1        0.1339
     26 H           6.9607   -4.0662    1.0115 H       1  LIG1        0.1335
     27 H           0.9554    0.2133    0.0937 H       1  LIG1        0.1357
     28 H           0.9167    4.4165   -0.8846 H       1  LIG1        0.1509
     29 H           3.7712   -0.6608    2.7037 H       1  LIG1        0.1333
     30 H           6.2312   -2.2314   -0.4723 H       1  LIG1        0.1464
     31 H          -1.2459    0.4416    1.1569 H       1  LIG1        0.1369
     32 H          -1.2848    4.6424    0.1776 H       1  LIG1        0.1393
     33 H           2.5694    0.0687    0.9740 H       1  LIG1        0.2384
     34 H           6.2221    1.3077   -4.0666 H       1  LIG1        0.0860
     35 H           6.5245    2.9959   -3.5875 H       1  LIG1        0.0813
     36 H           7.1207    1.6817   -2.5753 H       1  LIG1        0.0863
@<TRIPOS>BOND
     1     1     2   ar
     2     1     3   ar
     3     2     6   ar
     4     3     7   ar
     5     4     8   ar
     6     4    12   ar
     7     5     9   ar
     8     5    12   ar
     9     6    14   ar
    10     7    14   ar
    11     8    15   ar
    12     9    15   ar
    13    10    11   ar
    14    10    22   ar
    15    11    13   ar
    16    11    16   ar
    17    12    16    1
    18    13    17   ar
    19    13    19   ar
    20    14    22    1
    21    15    23    1
    22    16    20   ar
    23    17    18    1
    24    17    21   ar
    25    19    22   ar
    26    20    21   ar
    27     1    24    1
    28     2    25    1
    29     3    26    1
    30     4    27    1
    31     5    28    1
    32     6    29    1
    33     7    30    1
    34     8    31    1
    35     9    32    1
    36    10    33    1
    37    18    34    1
    38    18    35    1
    39    18    36    1
