@<TRIPOS>MOLECULE
AO-476/40672138
 35 37 0 0 0
SMALL
USER_CHARGES

@<TRIPOS>ATOM
      1 C           6.1135   -3.4399    2.5298 C.ar    1  LIG1       -0.0897
      2 C           6.3593   -3.1857    1.1805 C.ar    1  LIG1       -0.0834
      3 C           5.1786   -2.6728    3.2250 C.ar    1  LIG1       -0.0818
      4 C           5.6704   -2.1644    0.5264 C.ar    1  LIG1       -0.0518
      5 C           4.4896   -1.6515    2.5709 C.ar    1  LIG1       -0.0491
      6 C           2.4720    0.9457    0.1222 C.2     1  LIG1        0.0613
      7 C           5.8096    1.1571   -2.0658 C.3     1  LIG1        0.1424
      8 C           3.4937    1.2542   -0.8012 C.3     1  LIG1        0.1195
      9 C           4.7354   -1.3973    1.2216 C.ar    1  LIG1        0.0102
     10 C           4.5084    0.3673   -0.4777 C.3     1  LIG1        0.1063
     11 C           3.6836    2.1516   -1.8458 C.3     1  LIG1        0.1010
     12 C           6.0742    2.7716   -4.5865 C.2     1  LIG1       -0.0132
     13 C           6.3262    5.3012   -4.5442 C.3     1  LIG1       -0.0083
     14 N           2.8033   -0.0455    0.9560 N.2     1  LIG1       -0.2676
     15 N           5.7072    0.2576   -1.0704 N.3     1  LIG1       -0.2684
     16 N           4.0471   -0.3767    0.5670 N.pl3   1  LIG1       -0.2265
     17 N           4.8780    2.0431   -2.4379 N.3     1  LIG1       -0.2319
     18 N           2.7278    3.0907   -2.2569 N.3     1  LIG1       -0.3129
     19 N           6.6078    3.9692   -5.0454 N.am    1  LIG1       -0.3485
     20 N           5.2050    2.9374   -3.5599 N.am    1  LIG1       -0.2523
     21 S           6.6259    1.3640   -5.3191 S.2     1  LIG1       -0.3025
     22 H           6.6483   -4.2361    3.0390 H       1  LIG1        0.1361
     23 H           7.0861   -3.7837    0.6386 H       1  LIG1        0.1373
     24 H           4.9868   -2.8723    4.2753 H       1  LIG1        0.1380
     25 H           5.8708   -1.9772   -0.5258 H       1  LIG1        0.1405
     26 H           3.7631   -1.0617    3.1245 H       1  LIG1        0.1464
     27 H           1.4975    1.4023    0.2229 H       1  LIG1        0.2712
     28 H           6.7408    1.1625   -2.6214 H       1  LIG1        0.3798
     29 H           5.4689    5.7275   -5.0715 H       1  LIG1        0.1126
     30 H           7.1916    5.9525   -4.6949 H       1  LIG1        0.1134
     31 H           6.0985    5.2627   -3.4756 H       1  LIG1        0.1182
     32 H           1.8259    3.1073   -1.8155 H       1  LIG1        0.3134
     33 H           2.9166    3.6761   -3.0508 H       1  LIG1        0.3292
     34 H           7.2548    3.9058   -5.8255 H       1  LIG1        0.3227
     35 H           4.7308    3.8083   -3.4572 H       1  LIG1        0.3885
@<TRIPOS>BOND
     1     1     2   ar
     2     1     3   ar
     3     2     4   ar
     4     3     5   ar
     5     4     9   ar
     6     5     9   ar
     7     6     8    1
     8     6    14    2
     9     7    15    1
    10     7    17    1
    11     8    10    1
    12     8    11    1
    13     9    16    1
    14    10    15    1
    15    10    16    1
    16    11    17    1
    17    11    18    1
    18    12    19    1
    19    12    20    1
    20    12    21    2
    21    13    19    1
    22    14    16    1
    23    17    20    1
    24     1    22    1
    25     2    23    1
    26     3    24    1
    27     4    25    1
    28     5    26    1
    29     6    27    1
    30     7    28    1
    31    13    29    1
    32    13    30    1
    33    13    31    1
    34    18    32    1
    35    18    33    1
    36    19    34    1
    37    20    35    1
