@<TRIPOS>MOLECULE
AF-399/15336046
 26 29 0 0 0
SMALL
USER_CHARGES

@<TRIPOS>ATOM
      1 C          -1.2673    3.1571    0.0231 C.ar    1  LIG1       -0.1049
      2 C          -1.2357    1.7795   -0.1929 C.ar    1  LIG1       -0.1035
      3 C          -0.0786    3.8592    0.2230 C.ar    1  LIG1       -0.0965
      4 C          -0.0155    1.1038   -0.2091 C.ar    1  LIG1       -0.0912
      5 C           1.1416    3.1836    0.2069 C.ar    1  LIG1       -0.0838
      6 C           2.6829    0.0981    0.8788 C.ar    1  LIG1        0.0073
      7 C           4.8466    3.1232   -3.5404 C.ar    1  LIG1        0.0701
      8 C           1.1732    1.8059   -0.0092 C.ar    1  LIG1       -0.0718
      9 C           2.4322    1.1091   -0.0256 C.ar    1  LIG1       -0.0396
     10 C           3.5413    1.3001   -0.8763 C.ar    1  LIG1        0.0295
     11 C           4.6103    0.4527   -0.6251 C.ar    1  LIG1        0.0646
     12 C           3.7357    2.1924   -1.9184 C.ar    1  LIG1        0.0812
     13 C           5.9528    1.2661   -2.2611 C.ar    1  LIG1        0.0738
     14 N           3.6696    3.7121   -3.4602 N.ar    1  LIG1       -0.2676
     15 N           2.9595    3.1183   -2.4249 N.ar    1  LIG1       -0.2593
     16 N           5.8146    0.4068   -1.2864 N.ar    1  LIG1       -0.3263
     17 N           4.9314    2.1578   -2.5867 N.ar    1  LIG1       -0.2490
     18 S           4.2429   -0.5937    0.6785 S.2     1  LIG1       -0.0459
     19 H          -2.2172    3.6835    0.0347 H       1  LIG1        0.1165
     20 H          -2.1610    1.2329   -0.3498 H       1  LIG1        0.1152
     21 H          -0.1033    4.9320    0.3899 H       1  LIG1        0.1185
     22 H          -0.0074    0.0297   -0.3788 H       1  LIG1        0.1214
     23 H           2.0594    3.7453    0.3642 H       1  LIG1        0.1251
     24 H           2.0309   -0.2808    1.6546 H       1  LIG1        0.1937
     25 H           5.6370    3.3497   -4.2414 H       1  LIG1        0.2909
     26 H           6.8852    1.3011   -2.8467 H       1  LIG1        0.3319
@<TRIPOS>BOND
     1     1     2   ar
     2     1     3   ar
     3     2     4   ar
     4     3     5   ar
     5     4     8   ar
     6     5     8   ar
     7     6     9   ar
     8     6    18   ar
     9     7    14   ar
    10     7    17   ar
    11     8     9    1
    12     9    10   ar
    13    10    11   ar
    14    10    12   ar
    15    11    16   ar
    16    11    18   ar
    17    12    15   ar
    18    12    17   ar
    19    13    16   ar
    20    13    17   ar
    21    14    15   ar
    22     1    19    1
    23     2    20    1
    24     3    21    1
    25     4    22    1
    26     5    23    1
    27     6    24    1
    28     7    25    1
    29    13    26    1
