@<TRIPOS>MOLECULE
AE-848/34408043
 40 42 0 0 0
SMALL
USER_CHARGES

@<TRIPOS>ATOM
      1 C           3.0412    2.8446   -2.1780 C.1     1  LIG1        0.0757
      2 C           5.9456   -3.4140    2.6033 C.ar    1  LIG1       -0.1034
      3 C           5.0277   -2.5202    3.1548 C.ar    1  LIG1       -0.0994
      4 C           6.3486   -3.2694    1.2757 C.ar    1  LIG1       -0.0970
      5 C           4.5125   -1.4819    2.3788 C.ar    1  LIG1       -0.0793
      6 C           5.8334   -2.2310    0.4997 C.ar    1  LIG1       -0.0749
      7 C           0.2242    0.9677   -0.2112 C.ar    1  LIG1       -0.0762
      8 C           1.1693    3.1467    0.2313 C.ar    1  LIG1       -0.0845
      9 C          -1.0550    1.4773    0.0120 C.ar    1  LIG1       -0.0520
     10 C          -0.1099    3.6562    0.4545 C.ar    1  LIG1       -0.0645
     11 C           3.1105    0.2370    0.4776 C.ar    1  LIG1       -0.0198
     12 C           3.4891    1.7734   -1.3336 C.ar    1  LIG1        0.1144
     13 C           1.3363    1.8025   -0.1014 C.ar    1  LIG1       -0.0576
     14 C           4.9155   -1.3373    1.0511 C.ar    1  LIG1       -0.0323
     15 C           2.6628    1.2743   -0.3329 C.ar    1  LIG1       -0.0111
     16 C          -1.2220    2.8214    0.3447 C.ar    1  LIG1       -0.0109
     17 C           4.3824   -0.2625    0.2485 C.ar    1  LIG1       -0.0038
     18 C           4.7442    1.2053   -1.4815 C.ar    1  LIG1        0.0540
     19 C          -2.5691    4.7015    0.8984 C.3     1  LIG1        0.0249
     20 C           5.4130    0.6732   -4.0858 C.3     1  LIG1        0.0095
     21 N           2.6791    3.7104   -2.8606 N.1     1  LIG1       -0.3602
     22 N           5.2138    0.1965   -0.7136 N.ar    1  LIG1       -0.3617
     23 O          -2.4701    3.3186    0.5618 O.3     1  LIG1       -0.4157
     24 S           5.8969    1.7662   -2.7341 S.3     1  LIG1       -0.1287
     25 H           6.3478   -4.2213    3.2082 H       1  LIG1        0.1212
     26 H           4.7151   -2.6317    4.1889 H       1  LIG1        0.1196
     27 H           7.0643   -3.9641    0.8461 H       1  LIG1        0.1189
     28 H           3.7979   -0.7932    2.8233 H       1  LIG1        0.1295
     29 H           6.1573   -2.1306   -0.5335 H       1  LIG1        0.1381
     30 H           0.3381   -0.0822   -0.4699 H       1  LIG1        0.1375
     31 H           2.0261    3.8102    0.3206 H       1  LIG1        0.1383
     32 H          -1.9176    0.8222   -0.0752 H       1  LIG1        0.1335
     33 H          -0.2340    4.7043    0.7132 H       1  LIG1        0.1170
     34 H           2.4846   -0.1707    1.2667 H       1  LIG1        0.1491
     35 H          -3.6188    4.9675    1.0448 H       1  LIG1        0.0902
     36 H          -2.1380    5.3047    0.0954 H       1  LIG1        0.0905
     37 H          -2.0172    4.8825    1.8239 H       1  LIG1        0.1230
     38 H           6.0280    0.8757   -4.9661 H       1  LIG1        0.0797
     39 H           4.3629    0.8387   -4.3391 H       1  LIG1        0.0888
     40 H           5.5486   -0.3691   -3.7871 H       1  LIG1        0.0797
@<TRIPOS>BOND
     1     1    12    1
     2     1    21    3
     3     2     3   ar
     4     2     4   ar
     5     3     5   ar
     6     4     6   ar
     7     5    14   ar
     8     6    14   ar
     9     7     9   ar
    10     7    13   ar
    11     8    10   ar
    12     8    13   ar
    13     9    16   ar
    14    10    16   ar
    15    11    15   ar
    16    11    17   ar
    17    12    15   ar
    18    12    18   ar
    19    13    15    1
    20    14    17    1
    21    16    23    1
    22    17    22   ar
    23    18    22   ar
    24    18    24    1
    25    19    23    1
    26    20    24    1
    27     2    25    1
    28     3    26    1
    29     4    27    1
    30     5    28    1
    31     6    29    1
    32     7    30    1
    33     8    31    1
    34     9    32    1
    35    10    33    1
    36    11    34    1
    37    19    35    1
    38    19    36    1
    39    19    37    1
    40    20    38    1
    41    20    39    1
    42    20    40    1
