@<TRIPOS>MOLECULE
AM-879/15041697
 38 40 0 0 0
SMALL
USER_CHARGES

@<TRIPOS>ATOM
      1 C           3.1036    2.8420   -2.2175 C.1     1  LIG1        0.0645
      2 C           5.9718   -3.4160    2.5895 C.ar    1  LIG1       -0.1045
      3 C           5.0546   -2.5197    3.1379 C.ar    1  LIG1       -0.1000
      4 C           6.3783   -3.2737    1.2627 C.ar    1  LIG1       -0.0976
      5 C          -0.0683    3.6715    0.4134 C.ar    1  LIG1       -0.0979
      6 C           4.5436   -1.4810    2.3595 C.ar    1  LIG1       -0.0781
      7 C           5.8675   -2.2350    0.4844 C.ar    1  LIG1       -0.0735
      8 C           1.2102    3.1584    0.1948 C.ar    1  LIG1       -0.0843
      9 C          -1.1822    2.8391    0.3026 C.ar    1  LIG1       -0.0698
     10 C           0.2610    0.9807   -0.2454 C.ar    1  LIG1       -0.0419
     11 C           3.1487    0.2414    0.4514 C.ar    1  LIG1       -0.0254
     12 C           3.5345    1.7741   -1.3615 C.ar    1  LIG1        0.1252
     13 C           4.9501   -1.3386    1.0328 C.ar    1  LIG1       -0.0287
     14 C           1.3749    1.8131   -0.1346 C.ar    1  LIG1       -0.0500
     15 C           2.7050    1.2783   -0.3618 C.ar    1  LIG1       -0.0092
     16 C          -1.0175    1.4938   -0.0269 C.ar    1  LIG1       -0.0100
     17 C           4.4202   -0.2610    0.2259 C.ar    1  LIG1       -0.0040
     18 C           4.7887    1.2032   -1.5058 C.ar    1  LIG1        0.0236
     19 C          -1.8644   -0.6829   -0.4747 C.3     1  LIG1        0.0237
     20 N           2.7552    3.7057   -2.9099 N.1     1  LIG1       -0.3787
     21 N           5.2545    0.1947   -0.7352 N.ar    1  LIG1       -0.3507
     22 N           5.6498    1.6945   -2.5198 N.pl3   1  LIG1       -0.3644
     23 O          -2.1045    0.6818   -0.1348 O.3     1  LIG1       -0.4179
     24 H           6.3708   -4.2237    3.1962 H       1  LIG1        0.1198
     25 H           4.7392   -2.6294    4.1713 H       1  LIG1        0.1184
     26 H           7.0936   -3.9704    0.8355 H       1  LIG1        0.1175
     27 H          -0.1966    4.7191    0.6695 H       1  LIG1        0.1294
     28 H           3.8294   -0.7902    2.8016 H       1  LIG1        0.1304
     29 H           6.1941   -2.1362   -0.5481 H       1  LIG1        0.1399
     30 H           2.0685    3.8200    0.2850 H       1  LIG1        0.1247
     31 H          -2.1759    3.2441    0.4740 H       1  LIG1        0.1152
     32 H           0.3798   -0.0699   -0.5028 H       1  LIG1        0.1333
     33 H           2.5202   -0.1632    1.2401 H       1  LIG1        0.1346
     34 H          -2.8153   -1.2187   -0.5281 H       1  LIG1        0.1228
     35 H          -1.2188   -1.1390    0.2801 H       1  LIG1        0.0898
     36 H          -1.3699   -0.7252   -1.4480 H       1  LIG1        0.0892
     37 H           5.3139    2.4047   -3.1323 H       1  LIG1        0.2913
     38 H           6.5327    1.2535   -2.6548 H       1  LIG1        0.2934
@<TRIPOS>BOND
     1     1    12    1
     2     1    20    3
     3     2     3   ar
     4     2     4   ar
     5     3     6   ar
     6     4     7   ar
     7     5     8   ar
     8     5     9   ar
     9     6    13   ar
    10     7    13   ar
    11     8    14   ar
    12     9    16   ar
    13    10    14   ar
    14    10    16   ar
    15    11    15   ar
    16    11    17   ar
    17    12    15   ar
    18    12    18   ar
    19    13    17    1
    20    14    15    1
    21    16    23    1
    22    17    21   ar
    23    18    21   ar
    24    18    22    1
    25    19    23    1
    26     2    24    1
    27     3    25    1
    28     4    26    1
    29     5    27    1
    30     6    28    1
    31     7    29    1
    32     8    30    1
    33     9    31    1
    34    10    32    1
    35    11    33    1
    36    19    34    1
    37    19    35    1
    38    19    36    1
    39    22    37    1
    40    22    38    1
