@<TRIPOS>MOLECULE
AG-690/40749470
 46 48 0 0 0
SMALL
USER_CHARGES

@<TRIPOS>ATOM
      1 C           2.9918    2.8976   -2.2045 C.1     1  LIG1        0.0751
      2 C           5.0326   -1.1239    2.3900 C.ar    1  LIG1       -0.0767
      3 C           5.2663   -2.4821    0.4056 C.ar    1  LIG1       -0.0631
      4 C           0.1863    1.0090   -0.2320 C.ar    1  LIG1       -0.0756
      5 C           1.1259    3.1901    0.2119 C.ar    1  LIG1       -0.0743
      6 C           5.5535   -2.1622    3.1621 C.ar    1  LIG1       -0.0646
      7 C           5.7872   -3.5205    1.1778 C.ar    1  LIG1       -0.0498
      8 C          -1.0937    1.5139   -0.0034 C.ar    1  LIG1       -0.0663
      9 C          -0.1540    3.6950    0.4405 C.ar    1  LIG1       -0.0662
     10 C           3.0773    0.2859    0.4464 C.ar    1  LIG1       -0.0198
     11 C           3.4457    1.8266   -1.3632 C.ar    1  LIG1        0.1150
     12 C           1.2962    1.8471   -0.1243 C.ar    1  LIG1       -0.0529
     13 C           4.8890   -1.2839    1.0118 C.ar    1  LIG1       -0.0292
     14 C           2.6241    1.3232   -0.3609 C.ar    1  LIG1       -0.0075
     15 C           5.9307   -3.3604    2.5560 C.ar    1  LIG1       -0.0116
     16 C          -1.2639    2.8569    0.3328 C.ar    1  LIG1       -0.0113
     17 C           4.3500   -0.2094    0.2125 C.ar    1  LIG1       -0.0048
     18 C           4.7020    1.2625   -1.5160 C.ar    1  LIG1        0.0574
     19 C           8.1232    0.6146   -3.6587 C.3     1  LIG1       -0.0520
     20 C           8.0032    1.2159   -1.2164 C.3     1  LIG1       -0.0503
     21 C           6.8050   -5.5711    2.6258 C.3     1  LIG1        0.0250
     22 C           7.2279    0.7162   -2.4296 C.3     1  LIG1       -0.0099
     23 N           2.6250    3.7636   -2.8844 N.1     1  LIG1       -0.3600
     24 N           5.1770    0.2539   -0.7514 N.ar    1  LIG1       -0.3590
     25 O           6.4394   -4.3731    3.3095 O.3     1  LIG1       -0.4155
     26 S           5.8491    1.8290   -2.7713 S.3     1  LIG1       -0.1257
     27 CL         -2.8435    3.4788    0.6162 Cl      1  LIG1       -0.1376
     28 H           4.7431   -0.1957    2.8768 H       1  LIG1        0.1389
     29 H           5.1607   -2.6222   -0.6675 H       1  LIG1        0.1532
     30 H           0.3029   -0.0402   -0.4931 H       1  LIG1        0.1352
     31 H           1.9813    3.8558    0.3006 H       1  LIG1        0.1415
     32 H           5.6632   -2.0316    4.2352 H       1  LIG1        0.1153
     33 H           6.0796   -4.4516    0.7002 H       1  LIG1        0.1312
     34 H          -1.9498    0.8492   -0.0890 H       1  LIG1        0.1379
     35 H          -0.2718    4.7434    0.7029 H       1  LIG1        0.1383
     36 H           2.4552   -0.1251    1.2369 H       1  LIG1        0.1486
     37 H           8.5530    1.5936   -3.8985 H       1  LIG1        0.0383
     38 H           8.9578   -0.0746   -3.4882 H       1  LIG1        0.0426
     39 H           7.5696    0.2735   -4.5409 H       1  LIG1        0.0518
     40 H           8.4312    2.2041   -1.4186 H       1  LIG1        0.0444
     41 H           8.8340    0.5452   -0.9701 H       1  LIG1        0.0537
     42 H           7.3626    1.3094   -0.3320 H       1  LIG1        0.0443
     43 H           7.1960   -6.2963    3.3436 H       1  LIG1        0.0904
     44 H           7.5625   -5.3444    1.8713 H       1  LIG1        0.0904
     45 H           5.9199   -5.9858    2.1376 H       1  LIG1        0.1228
     46 H           6.8090   -0.2710   -2.2072 H       1  LIG1        0.0925
@<TRIPOS>BOND
     1     1    11    1
     2     1    23    3
     3     2     6   ar
     4     2    13   ar
     5     3     7   ar
     6     3    13   ar
     7     4     8   ar
     8     4    12   ar
     9     5     9   ar
    10     5    12   ar
    11     6    15   ar
    12     7    15   ar
    13     8    16   ar
    14     9    16   ar
    15    10    14   ar
    16    10    17   ar
    17    11    14   ar
    18    11    18   ar
    19    12    14    1
    20    13    17    1
    21    15    25    1
    22    16    27    1
    23    17    24   ar
    24    18    24   ar
    25    18    26    1
    26    19    22    1
    27    20    22    1
    28    21    25    1
    29    22    26    1
    30     2    28    1
    31     3    29    1
    32     4    30    1
    33     5    31    1
    34     6    32    1
    35     7    33    1
    36     8    34    1
    37     9    35    1
    38    10    36    1
    39    19    37    1
    40    19    38    1
    41    19    39    1
    42    20    40    1
    43    20    41    1
    44    20    42    1
    45    21    43    1
    46    21    44    1
    47    21    45    1
    48    22    46    1
