@<TRIPOS>MOLECULE
AI-031/12583059
 39 42 0 0 0
SMALL
USER_CHARGES

@<TRIPOS>ATOM
      1 C          -1.4153    2.5131    0.7504 C.ar    1  LIG1       -0.1023
      2 C          -0.7692    1.2774    0.7160 C.ar    1  LIG1       -0.0994
      3 C          -0.8108    3.6324    0.1782 C.ar    1  LIG1       -0.0947
      4 C           0.4816    1.1610    0.1095 C.ar    1  LIG1       -0.0790
      5 C           0.4400    3.5161   -0.4282 C.ar    1  LIG1       -0.0716
      6 C           4.9297   -2.4486    3.1316 C.ar    1  LIG1       -0.0852
      7 C           6.3090   -3.3078    1.3438 C.ar    1  LIG1       -0.0886
      8 C           4.5044   -1.4094    2.3040 C.ar    1  LIG1       -0.0488
      9 C           5.8836   -2.2686    0.5162 C.ar    1  LIG1       -0.0551
     10 C           3.3408    0.3349    0.2392 C.ar    1  LIG1        0.0115
     11 C           3.3794    1.2715   -0.7526 C.ar    1  LIG1        0.0252
     12 C           1.0862    2.2803   -0.4626 C.ar    1  LIG1       -0.0238
     13 C           5.8321   -3.3977    2.6515 C.ar    1  LIG1       -0.1087
     14 C           4.6676    1.1647   -1.3920 C.ar    1  LIG1        0.0483
     15 C           4.9813   -1.3194    0.9964 C.ar    1  LIG1       -0.0007
     16 C           2.3683    2.1606   -1.0843 C.ar    1  LIG1        0.0380
     17 C           4.9948    2.0127   -2.4599 C.ar    1  LIG1        0.0406
     18 C           6.2869   -4.5088    3.5361 C.3     1  LIG1       -0.0401
     19 C           6.2713    2.0249   -3.2171 C.3     1  LIG1        0.0149
     20 N           5.3743    0.1900   -0.7944 N.ar    1  LIG1       -0.2977
     21 N           2.7148    2.9681   -2.1220 N.ar    1  LIG1       -0.2757
     22 N           4.0100    2.8926   -2.7977 N.ar    1  LIG1       -0.2743
     23 N           4.5570   -0.2812    0.1691 N.ar    1  LIG1       -0.2727
     24 H          -2.3899    2.6031    1.2212 H       1  LIG1        0.1219
     25 H          -1.2405    0.4055    1.1599 H       1  LIG1        0.1200
     26 H          -1.3139    4.5946    0.2034 H       1  LIG1        0.1224
     27 H           0.9723    0.1907    0.0907 H       1  LIG1        0.1234
     28 H           0.8986    4.3972   -0.8705 H       1  LIG1        0.1385
     29 H           4.5534   -2.5115    4.1492 H       1  LIG1        0.1337
     30 H           7.0123   -4.0427    0.9612 H       1  LIG1        0.1341
     31 H           3.8013   -0.6756    2.6910 H       1  LIG1        0.1477
     32 H           6.2639   -2.2109   -0.5009 H       1  LIG1        0.1346
     33 H           2.5892    0.0545    0.9663 H       1  LIG1        0.2380
     34 H           5.6196   -5.3737    3.4370 H       1  LIG1        0.0606
     35 H           7.3073   -4.8261    3.2850 H       1  LIG1        0.0569
     36 H           6.3009   -4.1992    4.5894 H       1  LIG1        0.0568
     37 H           6.2198    1.3430   -4.0778 H       1  LIG1        0.0852
     38 H           6.5109    3.0314   -3.5919 H       1  LIG1        0.0856
     39 H           7.1195    1.7172   -2.5870 H       1  LIG1        0.0808
@<TRIPOS>BOND
     1     1     2   ar
     2     1     3   ar
     3     2     4   ar
     4     3     5   ar
     5     4    12   ar
     6     5    12   ar
     7     6     8   ar
     8     6    13   ar
     9     7     9   ar
    10     7    13   ar
    11     8    15   ar
    12     9    15   ar
    13    10    11   ar
    14    10    23   ar
    15    11    14   ar
    16    11    16   ar
    17    12    16    1
    18    13    18    1
    19    14    17   ar
    20    14    20   ar
    21    15    23    1
    22    16    21   ar
    23    17    19    1
    24    17    22   ar
    25    20    23   ar
    26    21    22   ar
    27     1    24    1
    28     2    25    1
    29     3    26    1
    30     4    27    1
    31     5    28    1
    32     6    29    1
    33     7    30    1
    34     8    31    1
    35     9    32    1
    36    10    33    1
    37    18    34    1
    38    18    35    1
    39    18    36    1
    40    19    37    1
    41    19    38    1
    42    19    39    1
