@<TRIPOS>MOLECULE
AO-476/42008147
 44 47 0 0 0
SMALL
USER_CHARGES

@<TRIPOS>ATOM
      1 C           2.9769    2.8454   -2.1957 C.1     1  LIG1        0.0820
      2 C           6.5843   -3.1358    1.4332 C.ar    1  LIG1       -0.0958
      3 C           5.9668   -3.4435    2.6417 C.ar    1  LIG1       -0.1009
      4 C           6.0898   -2.1019    0.6343 C.ar    1  LIG1       -0.0719
      5 C           1.1488    3.1713    0.1969 C.ar    1  LIG1       -0.0737
      6 C           0.2013    0.9819   -0.1851 C.ar    1  LIG1       -0.0740
      7 C           4.8509   -2.7201    3.0550 C.ar    1  LIG1       -0.0946
      8 C          -0.1297    3.6883    0.4056 C.ar    1  LIG1       -0.0662
      9 C          -1.0773    1.4989    0.0236 C.ar    1  LIG1       -0.0660
     10 C           3.4327    1.7849   -1.3450 C.ar    1  LIG1        0.1510
     11 C           1.3144    1.8180   -0.0986 C.ar    1  LIG1       -0.0500
     12 C           4.9637   -1.3597    1.0280 C.ar    1  LIG1       -0.0238
     13 C           2.6487    1.2787   -0.3169 C.ar    1  LIG1        0.0013
     14 C           4.3390   -1.6908    2.2526 C.ar    1  LIG1       -0.0835
     15 C           3.1396    0.2498    0.4885 C.ar    1  LIG1       -0.0281
     16 C          -1.2428    2.8521    0.3190 C.ar    1  LIG1       -0.0115
     17 C           4.4145   -0.2615    0.2132 C.ar    1  LIG1        0.0040
     18 C           4.6841    1.2281   -1.5376 C.ar    1  LIG1        0.1237
     19 C           6.8125   -0.4316   -3.7669 C.2     1  LIG1       -0.1237
     20 C           7.3753    0.2624   -2.7715 C.2     1  LIG1       -0.1003
     21 C           3.1621   -0.8745    2.7353 C.3     1  LIG1       -0.0279
     22 C           2.3008   -0.3606    1.5778 C.3     1  LIG1       -0.0208
     23 C           6.8998    1.6021   -2.3163 C.3     1  LIG1        0.0470
     24 N           2.6080    3.7036   -2.8842 N.1     1  LIG1       -0.3645
     25 N           5.1898    0.2217   -0.7892 N.ar    1  LIG1       -0.3348
     26 O           5.4982    1.6899   -2.5400 O.3     1  LIG1       -0.3530
     27 CL         -2.8202    3.4910    0.5752 Cl      1  LIG1       -0.1382
     28 H           7.4552   -3.6992    1.1105 H       1  LIG1        0.1187
     29 H           6.3570   -4.2435    3.2637 H       1  LIG1        0.1233
     30 H           6.5990   -1.8902   -0.3032 H       1  LIG1        0.1390
     31 H           2.0067    3.8358    0.2676 H       1  LIG1        0.1409
     32 H           0.3139   -0.0749   -0.4155 H       1  LIG1        0.1375
     33 H           4.3842   -2.9603    4.0068 H       1  LIG1        0.1225
     34 H          -0.2445    4.7451    0.6332 H       1  LIG1        0.1385
     35 H          -1.9358    0.8359   -0.0482 H       1  LIG1        0.1381
     36 H           7.1905   -1.4029   -4.0658 H       1  LIG1        0.0859
     37 H           5.9573   -0.0315   -4.3004 H       1  LIG1        0.0918
     38 H           8.2367   -0.1622   -2.2625 H       1  LIG1        0.1044
     39 H           2.5325   -1.4689    3.4081 H       1  LIG1        0.0781
     40 H           3.5546   -0.0277    3.3132 H       1  LIG1        0.0745
     41 H           1.5822    0.3536    1.9941 H       1  LIG1        0.0756
     42 H           1.7295   -1.1909    1.1427 H       1  LIG1        0.0787
     43 H           7.3909    2.4195   -2.8536 H       1  LIG1        0.1214
     44 H           7.0904    1.7186   -1.2449 H       1  LIG1        0.1251
@<TRIPOS>BOND
     1     1    10    1
     2     1    24    3
     3     2     3   ar
     4     2     4   ar
     5     3     7   ar
     6     4    12   ar
     7     5     8   ar
     8     5    11   ar
     9     6     9   ar
    10     6    11   ar
    11     7    14   ar
    12     8    16   ar
    13     9    16   ar
    14    10    13   ar
    15    10    18   ar
    16    11    13    1
    17    12    14   ar
    18    12    17    1
    19    13    15   ar
    20    14    21    1
    21    15    17   ar
    22    15    22    1
    23    16    27    1
    24    17    25   ar
    25    18    25   ar
    26    18    26    1
    27    19    20    2
    28    20    23    1
    29    21    22    1
    30    23    26    1
    31     2    28    1
    32     3    29    1
    33     4    30    1
    34     5    31    1
    35     6    32    1
    36     7    33    1
    37     8    34    1
    38     9    35    1
    39    19    36    1
    40    19    37    1
    41    20    38    1
    42    21    39    1
    43    21    40    1
    44    22    41    1
    45    22    42    1
    46    23    43    1
    47    23    44    1
