@<TRIPOS>MOLECULE
AP-960/41299812
 40 43 0 0 0
SMALL
USER_CHARGES

@<TRIPOS>ATOM
      1 C           1.1499    3.3757   -0.0189 C.ar    1  LIG1       -0.0412
      2 C           0.2914    1.1319   -0.2744 C.ar    1  LIG1       -0.0415
      3 C           5.2290   -2.3641    0.2989 C.ar    1  LIG1       -0.0416
      4 C           5.2885   -1.0274    2.3106 C.ar    1  LIG1       -0.0411
      5 C          -0.1514    3.8574    0.1234 C.ar    1  LIG1       -0.0515
      6 C          -1.0098    1.6136   -0.1321 C.ar    1  LIG1       -0.0516
      7 C           5.7300   -3.4551    1.0090 C.ar    1  LIG1       -0.0529
      8 C           5.7896   -2.1185    3.0207 C.ar    1  LIG1       -0.0525
      9 C           1.3713    2.0129   -0.2179 C.ar    1  LIG1        0.0067
     10 C           5.0083   -1.1503    0.9496 C.ar    1  LIG1        0.0093
     11 C          -1.2312    2.9763    0.0669 C.ar    1  LIG1       -0.0014
     12 C           6.0103   -3.3324    2.3698 C.ar    1  LIG1       -0.0034
     13 C           4.7486    1.5364   -1.6504 C.ar    1  LIG1        0.0644
     14 C           3.5088    1.9905   -1.4169 C.ar    1  LIG1        0.1057
     15 C           5.2888    0.4083   -0.8597 C.ar    1  LIG1        0.1544
     16 C           3.2300    0.5666    0.5844 C.ar    1  LIG1        0.0689
     17 C           5.6282    2.0862   -2.7399 C.3     1  LIG1       -0.0179
     18 C           5.0440    3.3594   -3.3363 C.3     1  LIG1       -0.0251
     19 C           3.5446    3.1889   -3.4906 C.3     1  LIG1        0.0420
     20 N           2.7193    1.5140   -0.3649 N.ar    1  LIG1       -0.2340
     21 N           4.4887   -0.0200    0.2141 N.ar    1  LIG1       -0.2170
     22 O           6.3586   -0.0978   -1.2025 O.2     1  LIG1       -0.4465
     23 O           2.9181    2.9543   -2.2274 O.3     1  LIG1       -0.3628
     24 S           2.4821    0.2782    2.0997 S.2     1  LIG1       -0.2464
     25 CL         -2.8369    3.5709    0.2428 Cl      1  LIG1       -0.1297
     26 CL          6.6286   -4.6788    3.2459 Cl      1  LIG1       -0.1328
     27 H           1.9841    4.0711    0.0265 H       1  LIG1        0.1507
     28 H           0.4526    0.0681   -0.4291 H       1  LIG1        0.1501
     29 H           5.0144   -2.4707   -0.7613 H       1  LIG1        0.1482
     30 H           5.1201   -0.0863    2.8276 H       1  LIG1        0.1489
     31 H          -0.3091    4.9216    0.2782 H       1  LIG1        0.1469
     32 H          -1.8419    0.9157   -0.1783 H       1  LIG1        0.1468
     33 H           5.8971   -4.3950    0.4892 H       1  LIG1        0.1452
     34 H           6.0036   -2.0087    4.0806 H       1  LIG1        0.1455
     35 H           6.6192    2.3003   -2.3209 H       1  LIG1        0.0743
     36 H           5.7616    1.3477   -3.5388 H       1  LIG1        0.0824
     37 H           5.2782    4.2212   -2.7033 H       1  LIG1        0.0729
     38 H           5.4948    3.5349   -4.3212 H       1  LIG1        0.0607
     39 H           3.0853    4.0676   -3.9599 H       1  LIG1        0.1165
     40 H           3.3299    2.3259   -4.1293 H       1  LIG1        0.1505
@<TRIPOS>BOND
     1     1     5   ar
     2     1     9   ar
     3     2     6   ar
     4     2     9   ar
     5     3     7   ar
     6     3    10   ar
     7     4     8   ar
     8     4    10   ar
     9     5    11   ar
    10     6    11   ar
    11     7    12   ar
    12     8    12   ar
    13     9    20    1
    14    10    21    1
    15    11    25    1
    16    12    26    1
    17    13    14   ar
    18    13    15   ar
    19    13    17    1
    20    14    20   ar
    21    14    23    1
    22    15    21   ar
    23    15    22    2
    24    16    20   ar
    25    16    21   ar
    26    16    24    2
    27    17    18    1
    28    18    19    1
    29    19    23    1
    30     1    27    1
    31     2    28    1
    32     3    29    1
    33     4    30    1
    34     5    31    1
    35     6    32    1
    36     7    33    1
    37     8    34    1
    38    17    35    1
    39    17    36    1
    40    18    37    1
    41    18    38    1
    42    19    39    1
    43    19    40    1
