@<TRIPOS>MOLECULE
AO-476/15578132
 41 44 0 0 0
SMALL
USER_CHARGES

@<TRIPOS>ATOM
      1 C          -1.0198    2.6823    0.3716 C.ar    1  LIG1       -0.1040
      2 C           0.0782    3.2436    1.0233 C.ar    1  LIG1       -0.0988
      3 C          -0.8352    1.6319   -0.5275 C.ar    1  LIG1       -0.1010
      4 C           1.3609    2.7547    0.7758 C.ar    1  LIG1       -0.0866
      5 C           0.4475    1.1430   -0.7750 C.ar    1  LIG1       -0.0901
      6 C           5.1910   -1.2516    2.4342 C.ar    1  LIG1       -0.0698
      7 C           5.4338   -2.6309    0.4656 C.ar    1  LIG1       -0.0668
      8 C           5.6861   -2.2900    3.2229 C.ar    1  LIG1       -0.0613
      9 C           5.9289   -3.6694    1.2544 C.ar    1  LIG1       -0.0523
     10 C           3.2901    0.1656    0.4490 C.ar    1  LIG1       -0.0243
     11 C           5.4157    2.5396   -3.2671 C.ar    1  LIG1        0.0441
     12 C           3.7483    1.6651   -1.3788 C.ar    1  LIG1        0.0622
     13 C           1.5456    1.7043   -0.1233 C.ar    1  LIG1       -0.0673
     14 C           5.0649   -1.4220    1.0556 C.ar    1  LIG1       -0.0237
     15 C           2.8821    1.1951   -0.3807 C.ar    1  LIG1       -0.0341
     16 C           6.0551   -3.4990    2.6330 C.ar    1  LIG1       -0.0117
     17 C           4.5526   -0.3471    0.2391 C.ar    1  LIG1        0.0073
     18 C           5.0161    1.0904   -1.5266 C.ar    1  LIG1        0.0551
     19 C           3.4097    2.6962   -2.2516 C.ar    1  LIG1        0.0059
     20 C           6.8969   -5.7208    2.7350 C.3     1  LIG1        0.0250
     21 N           5.8470    1.5346   -2.4763 N.ar    1  LIG1       -0.3290
     22 N           4.2277    3.1579   -3.2121 N.ar    1  LIG1       -0.3429
     23 N           5.4033    0.0937   -0.7189 N.ar    1  LIG1       -0.3309
     24 N           2.1567    3.3440   -2.1879 N.pl3   1  LIG1       -0.3667
     25 O           6.5387   -4.5118    3.4027 O.3     1  LIG1       -0.4156
     26 H          -2.0187    3.0621    0.5657 H       1  LIG1        0.1222
     27 H          -0.0655    4.0604    1.7246 H       1  LIG1        0.1195
     28 H          -1.6899    1.1936   -1.0344 H       1  LIG1        0.1203
     29 H           2.2068    3.2028    1.2920 H       1  LIG1        0.1309
     30 H           0.5758    0.3234   -1.4781 H       1  LIG1        0.1269
     31 H           4.9078   -0.3150    2.9087 H       1  LIG1        0.1527
     32 H           5.3414   -2.7793   -0.6076 H       1  LIG1        0.1439
     33 H           5.7824   -2.1512    4.2963 H       1  LIG1        0.1154
     34 H           6.2150   -4.6089    0.7893 H       1  LIG1        0.1316
     35 H           2.6493   -0.2263    1.2339 H       1  LIG1        0.1441
     36 H           6.1056    2.8813   -4.0290 H       1  LIG1        0.3073
     37 H           7.2673   -6.4450    3.4647 H       1  LIG1        0.1226
     38 H           7.6681   -5.5117    1.9894 H       1  LIG1        0.0906
     39 H           6.0131   -6.1276    2.2378 H       1  LIG1        0.0906
     40 H           1.4767    3.0239   -1.5294 H       1  LIG1        0.2822
     41 H           1.9379    4.0466   -2.8638 H       1  LIG1        0.2766
@<TRIPOS>BOND
     1     1     2   ar
     2     1     3   ar
     3     2     4   ar
     4     3     5   ar
     5     4    13   ar
     6     5    13   ar
     7     6     8   ar
     8     6    14   ar
     9     7     9   ar
    10     7    14   ar
    11     8    16   ar
    12     9    16   ar
    13    10    15   ar
    14    10    17   ar
    15    11    21   ar
    16    11    22   ar
    17    12    15   ar
    18    12    18   ar
    19    12    19   ar
    20    13    15    1
    21    14    17    1
    22    16    25    1
    23    17    23   ar
    24    18    21   ar
    25    18    23   ar
    26    19    22   ar
    27    19    24    1
    28    20    25    1
    29     1    26    1
    30     2    27    1
    31     3    28    1
    32     4    29    1
    33     5    30    1
    34     6    31    1
    35     7    32    1
    36     8    33    1
    37     9    34    1
    38    10    35    1
    39    11    36    1
    40    20    37    1
    41    20    38    1
    42    20    39    1
    43    24    40    1
    44    24    41    1
