@<TRIPOS>MOLECULE
AG-205/08567008
 43 45 0 0 0
SMALL
USER_CHARGES

@<TRIPOS>ATOM
      1 C           3.0412    2.8446   -2.1780 C.1     1  LIG1        0.0754
      2 C           5.9458   -3.4139    2.6032 C.ar    1  LIG1       -0.1033
      3 C           5.5702   -2.2133    3.2056 C.ar    1  LIG1       -0.0992
      4 C           5.8063   -3.5763    1.2248 C.ar    1  LIG1       -0.0970
      5 C           5.0549   -1.1750    2.4296 C.ar    1  LIG1       -0.0791
      6 C           5.2910   -2.5381    0.4489 C.ar    1  LIG1       -0.0750
      7 C           0.2241    0.9678   -0.2113 C.ar    1  LIG1       -0.0858
      8 C           1.1693    3.1467    0.2313 C.ar    1  LIG1       -0.0750
      9 C          -1.0551    1.4774    0.0119 C.ar    1  LIG1       -0.0647
     10 C          -0.1099    3.6563    0.4545 C.ar    1  LIG1       -0.0519
     11 C           3.1104    0.2370    0.4776 C.ar    1  LIG1       -0.0197
     12 C           3.4891    1.7734   -1.3335 C.ar    1  LIG1        0.1145
     13 C           1.3363    1.8025   -0.1014 C.ar    1  LIG1       -0.0576
     14 C           4.9153   -1.3374    1.0512 C.ar    1  LIG1       -0.0322
     15 C           2.6628    1.2743   -0.3329 C.ar    1  LIG1       -0.0112
     16 C          -1.2221    2.8215    0.3446 C.ar    1  LIG1       -0.0109
     17 C           4.3823   -0.2625    0.2486 C.ar    1  LIG1       -0.0038
     18 C           4.7442    1.2053   -1.4814 C.ar    1  LIG1        0.0546
     19 C           7.9155   -0.0028   -2.2085 C.3     1  LIG1       -0.0501
     20 C          -2.5691    4.7016    0.8983 C.3     1  LIG1        0.0249
     21 C           7.4479    1.4037   -1.8859 C.3     1  LIG1       -0.0008
     22 N           2.6792    3.7105   -2.8605 N.1     1  LIG1       -0.3613
     23 N           5.2138    0.1965   -0.7135 N.ar    1  LIG1       -0.3615
     24 O          -2.4702    3.3187    0.5617 O.3     1  LIG1       -0.4157
     25 S           5.8970    1.7661   -2.7339 S.3     1  LIG1       -0.1285
     26 H           6.3486   -4.2216    3.2074 H       1  LIG1        0.1212
     27 H           5.6803   -2.0861    4.2785 H       1  LIG1        0.1198
     28 H           6.0999   -4.5104    0.7550 H       1  LIG1        0.1188
     29 H           4.7668   -0.2449    2.9141 H       1  LIG1        0.1299
     30 H           5.1886   -2.6790   -0.6245 H       1  LIG1        0.1378
     31 H           0.3380   -0.0821   -0.4700 H       1  LIG1        0.1320
     32 H           2.0262    3.8102    0.3207 H       1  LIG1        0.1439
     33 H          -1.9176    0.8223   -0.0753 H       1  LIG1        0.1164
     34 H          -0.2340    4.7043    0.7132 H       1  LIG1        0.1340
     35 H           2.4845   -0.1707    1.2667 H       1  LIG1        0.1495
     36 H           7.1770   -0.7520   -1.9034 H       1  LIG1        0.0522
     37 H           8.1144   -0.1253   -3.2786 H       1  LIG1        0.0429
     38 H           8.8458   -0.2184   -1.6723 H       1  LIG1        0.0428
     39 H          -3.6188    4.9676    1.0447 H       1  LIG1        0.0903
     40 H          -2.1379    5.3048    0.0954 H       1  LIG1        0.0901
     41 H          -2.0172    4.8826    1.8238 H       1  LIG1        0.1233
     42 H           8.2000    2.1345   -2.1987 H       1  LIG1        0.0849
     43 H           7.2944    1.5141   -0.8082 H       1  LIG1        0.0850
@<TRIPOS>BOND
     1     1    12    1
     2     1    22    3
     3     2     3   ar
     4     2     4   ar
     5     3     5   ar
     6     4     6   ar
     7     5    14   ar
     8     6    14   ar
     9     7     9   ar
    10     7    13   ar
    11     8    10   ar
    12     8    13   ar
    13     9    16   ar
    14    10    16   ar
    15    11    15   ar
    16    11    17   ar
    17    12    15   ar
    18    12    18   ar
    19    13    15    1
    20    14    17    1
    21    16    24    1
    22    17    23   ar
    23    18    23   ar
    24    18    25    1
    25    19    21    1
    26    20    24    1
    27    21    25    1
    28     2    26    1
    29     3    27    1
    30     4    28    1
    31     5    29    1
    32     6    30    1
    33     7    31    1
    34     8    32    1
    35     9    33    1
    36    10    34    1
    37    11    35    1
    38    19    36    1
    39    19    37    1
    40    19    38    1
    41    20    39    1
    42    20    40    1
    43    20    41    1
    44    21    42    1
    45    21    43    1
