@<TRIPOS>MOLECULE
AE-842/32998057
 41 44 0 0 0
SMALL
USER_CHARGES

@<TRIPOS>ATOM
      1 C          -1.3538    2.9053    0.3893 C.ar    1  LIG1       -0.1037
      2 C          -0.1749    3.6299    0.5638 C.ar    1  LIG1       -0.0988
      3 C          -1.2981    1.5424    0.0973 C.ar    1  LIG1       -0.0976
      4 C           1.0599    2.9918    0.4462 C.ar    1  LIG1       -0.0774
      5 C          -0.0633    0.9043   -0.0203 C.ar    1  LIG1       -0.0757
      6 C           5.6634   -2.2043    0.5393 C.ar    1  LIG1       -0.0456
      7 C           4.3470   -1.5884    2.4692 C.ar    1  LIG1       -0.0467
      8 C           6.3102   -3.1837    1.2930 C.ar    1  LIG1       -0.0646
      9 C           4.9938   -2.5678    3.2229 C.ar    1  LIG1       -0.0653
     10 C           1.1157    1.6290    0.1541 C.ar    1  LIG1       -0.0349
     11 C           4.6819   -1.4066    1.1274 C.ar    1  LIG1       -0.0234
     12 C           5.9754   -3.3655    2.6348 C.ar    1  LIG1       -0.0174
     13 C           2.4182    0.9560    0.0300 C.2     1  LIG1        0.0078
     14 C           4.9880    2.7327   -2.3455 C.3     1  LIG1       -0.0678
     15 C           6.1567    1.8242   -1.9194 C.3     1  LIG1       -0.0638
     16 C           3.8271    2.7753   -1.3346 C.3     1  LIG1       -0.0490
     17 C           5.7158    0.4567   -1.3624 C.3     1  LIG1       -0.0428
     18 C           3.4604    1.3494   -0.9832 C.3     1  LIG1        0.0102
     19 C           4.6684    0.7040   -0.2899 C.3     1  LIG1       -0.0092
     20 N           2.7453   -0.0928    0.7295 N.2     1  LIG1       -0.3272
     21 N           4.0374   -0.4268    0.3742 N.pl3   1  LIG1       -0.3379
     22 CL          6.7736   -4.5739    3.5643 Cl      1  LIG1       -0.1512
     23 H          -2.3152    3.4021    0.4808 H       1  LIG1        0.1199
     24 H          -0.2185    4.6911    0.7909 H       1  LIG1        0.1198
     25 H          -2.2161    0.9781   -0.0383 H       1  LIG1        0.1195
     26 H           1.9724    3.5661    0.5841 H       1  LIG1        0.1306
     27 H          -0.0319   -0.1581   -0.2482 H       1  LIG1        0.1327
     28 H           5.9325   -2.0701   -0.5052 H       1  LIG1        0.1345
     29 H           3.5846   -0.9712    2.9378 H       1  LIG1        0.1332
     30 H           7.0743   -3.7966    0.8217 H       1  LIG1        0.1383
     31 H           4.7235   -2.6966    4.2680 H       1  LIG1        0.1389
     32 H           5.3577    3.7486   -2.5251 H       1  LIG1        0.0477
     33 H           4.6005    2.3663   -3.3049 H       1  LIG1        0.0428
     34 H           6.8345    1.6748   -2.7675 H       1  LIG1        0.0496
     35 H           6.7348    2.3457   -1.1455 H       1  LIG1        0.0443
     36 H           4.1190    3.3403   -0.4414 H       1  LIG1        0.0541
     37 H           2.9701    3.2981   -1.7731 H       1  LIG1        0.0594
     38 H           5.3206   -0.1734   -2.1683 H       1  LIG1        0.0593
     39 H           6.5818   -0.0684   -0.9443 H       1  LIG1        0.0606
     40 H           3.1892    0.8037   -1.9001 H       1  LIG1        0.0917
     41 H           5.0775    1.3735    0.4827 H       1  LIG1        0.1053
@<TRIPOS>BOND
     1     1     2   ar
     2     1     3   ar
     3     2     4   ar
     4     3     5   ar
     5     4    10   ar
     6     5    10   ar
     7     6     8   ar
     8     6    11   ar
     9     7     9   ar
    10     7    11   ar
    11     8    12   ar
    12     9    12   ar
    13    10    13    1
    14    11    21    1
    15    12    22    1
    16    13    18    1
    17    13    20    2
    18    14    15    1
    19    14    16    1
    20    15    17    1
    21    16    18    1
    22    17    19    1
    23    18    19    1
    24    19    21    1
    25    20    21    1
    26     1    23    1
    27     2    24    1
    28     3    25    1
    29     4    26    1
    30     5    27    1
    31     6    28    1
    32     7    29    1
    33     8    30    1
    34     9    31    1
    35    14    32    1
    36    14    33    1
    37    15    34    1
    38    15    35    1
    39    16    36    1
    40    16    37    1
    41    17    38    1
    42    17    39    1
    43    18    40    1
    44    19    41    1
