@<TRIPOS>MOLECULE
AN-689/41741311
 38 40 0 0 0
SMALL
USER_CHARGES

@<TRIPOS>ATOM
      1 C           5.2521    0.5251    0.5560 C.ar    1  LIG1       -0.0506
      2 C           5.8489    2.5284   -0.6557 C.ar    1  LIG1       -0.0585
      3 C          -0.4589    4.5454   -0.5754 C.ar    1  LIG1       -0.0585
      4 C           1.2510    5.7711    0.6125 C.ar    1  LIG1       -0.0506
      5 C           6.5887    0.1263    0.5549 C.ar    1  LIG1       -0.0463
      6 C           7.1856    2.1295   -0.6567 C.ar    1  LIG1       -0.0588
      7 C          -1.2841    5.6697   -0.5477 C.ar    1  LIG1       -0.0588
      8 C           0.4258    6.8954    0.6402 C.ar    1  LIG1       -0.0462
      9 C           4.8822    1.7262   -0.0494 C.ar    1  LIG1       -0.0034
     10 C           0.8086    4.5961    0.0047 C.ar    1  LIG1       -0.0034
     11 C           7.5555    0.9284   -0.0514 C.ar    1  LIG1       -0.0090
     12 C          -0.8418    6.8446    0.0601 C.ar    1  LIG1       -0.0090
     13 C           2.4407    1.2827   -0.0459 C.2     1  LIG1        0.3168
     14 C           1.2122    2.1484   -0.0286 C.2     1  LIG1        0.3167
     15 C           3.0597    3.4666   -0.0860 C.2     1  LIG1        0.2511
     16 C           9.1681   -0.6998    0.5841 C.3     1  LIG1        0.0244
     17 C          -2.9302    7.8205   -0.5243 C.3     1  LIG1        0.0244
     18 N           3.5114    2.1354   -0.0484 N.am    1  LIG1       -0.1530
     19 N           1.6550    3.4433   -0.0237 N.am    1  LIG1       -0.1530
     20 O           2.3263    0.0739   -0.0202 O.2     1  LIG1       -0.3585
     21 O           0.1129    1.6339    0.0135 O.2     1  LIG1       -0.3586
     22 O           3.7576    4.4608   -0.2574 O.2     1  LIG1       -0.3939
     23 O           8.8597    0.5393   -0.0524 O.3     1  LIG1       -0.4169
     24 O          -1.6469    7.9416    0.0872 O.3     1  LIG1       -0.4169
     25 H           4.5071   -0.1078    1.0316 H       1  LIG1        0.1570
     26 H           5.5722    3.4662   -1.1306 H       1  LIG1        0.1585
     27 H          -0.8137    3.6351   -1.0519 H       1  LIG1        0.1585
     28 H           2.2368    5.8222    1.0677 H       1  LIG1        0.1571
     29 H           6.8707   -0.8104    1.0282 H       1  LIG1        0.1421
     30 H           7.9340    2.7587   -1.1308 H       1  LIG1        0.1241
     31 H          -2.2704    5.6240   -1.0013 H       1  LIG1        0.1241
     32 H           0.7760    7.8077    1.1152 H       1  LIG1        0.1422
     33 H          10.2417   -0.8904    0.5113 H       1  LIG1        0.1230
     34 H           8.6104   -1.5068    0.1023 H       1  LIG1        0.0902
     35 H           8.8817   -0.6396    1.6368 H       1  LIG1        0.0902
     36 H          -3.4694    8.7664   -0.4321 H       1  LIG1        0.0902
     37 H          -3.4925    7.0194   -0.0380 H       1  LIG1        0.0902
     38 H          -2.7987    7.5803   -1.5821 H       1  LIG1        0.1230
@<TRIPOS>BOND
     1     1     5   ar
     2     1     9   ar
     3     2     6   ar
     4     2     9   ar
     5     3     7   ar
     6     3    10   ar
     7     4     8   ar
     8     4    10   ar
     9     5    11   ar
    10     6    11   ar
    11     7    12   ar
    12     8    12   ar
    13     9    18    1
    14    10    19    1
    15    11    23    1
    16    12    24    1
    17    13    14    1
    18    13    18   am
    19    13    20    2
    20    14    19   am
    21    14    21    2
    22    15    18   am
    23    15    19   am
    24    15    22    2
    25    16    23    1
    26    17    24    1
    27     1    25    1
    28     2    26    1
    29     3    27    1
    30     4    28    1
    31     5    29    1
    32     6    30    1
    33     7    31    1
    34     8    32    1
    35    16    33    1
    36    16    34    1
    37    16    35    1
    38    17    36    1
    39    17    37    1
    40    17    38    1
