@<TRIPOS>MOLECULE
AK-087/42718336
 37 39 0 0 0
SMALL
USER_CHARGES

@<TRIPOS>ATOM
      1 C          -0.4897    0.4759    0.7054 C.1     1  LIG1        0.0326
      2 C           5.3188    1.0571    1.0047 C.ar    1  LIG1       -0.0637
      3 C           5.5927    2.2342   -1.0873 C.ar    1  LIG1       -0.0633
      4 C           0.0064    4.7986   -1.0173 C.ar    1  LIG1       -0.0465
      5 C           1.0451    5.4500    1.0646 C.ar    1  LIG1       -0.0493
      6 C          -0.7551    5.9671   -1.0030 C.ar    1  LIG1       -0.0444
      7 C           0.2836    6.6185    1.0789 C.ar    1  LIG1       -0.0533
      8 C           6.6711    0.7159    0.9898 C.ar    1  LIG1       -0.0741
      9 C           6.9451    1.8930   -1.1022 C.ar    1  LIG1       -0.0740
     10 C           2.2948    1.2789   -0.0109 C.ar    1  LIG1       -0.0348
     11 C           4.7794    1.8162   -0.0339 C.ar    1  LIG1       -0.0277
     12 C           0.9064    4.5400    0.0165 C.ar    1  LIG1       -0.0056
     13 C          -0.6165    6.8771    0.0451 C.ar    1  LIG1       -0.0066
     14 C           7.4843    1.1339   -0.0636 C.ar    1  LIG1       -0.0399
     15 C           3.3871    2.1670   -0.0191 C.ar    1  LIG1        0.0115
     16 C           1.1895    2.0942    0.0032 C.ar    1  LIG1       -0.0005
     17 C          -2.2589    8.2206   -1.0289 C.3     1  LIG1        0.0253
     18 C          -0.2483    1.7603    0.0189 C.3     1  LIG1        0.1208
     19 N          -0.6691   -0.5352    1.2458 N.1     1  LIG1       -0.3856
     20 N           3.0099    3.4483   -0.0111 N.ar    1  LIG1       -0.3100
     21 N           1.6683    3.3713    0.0023 N.ar    1  LIG1       -0.2891
     22 O          -1.3586    8.0180    0.0593 O.3     1  LIG1       -0.4154
     23 BR          9.3163    0.6704   -0.0844 Br      1  LIG1       -0.1109
     24 H           4.6982    0.7235    1.8329 H       1  LIG1        0.1416
     25 H           5.1870    2.8254   -1.9052 H       1  LIG1        0.1424
     26 H          -0.1119    4.0978   -1.8403 H       1  LIG1        0.1410
     27 H           1.7425    5.2603    1.8770 H       1  LIG1        0.1502
     28 H          -1.4545    6.1635   -1.8110 H       1  LIG1        0.1417
     29 H           0.3969    7.3234    1.8981 H       1  LIG1        0.1253
     30 H           7.0749    0.1229    1.8061 H       1  LIG1        0.1378
     31 H           7.5648    2.2251   -1.9313 H       1  LIG1        0.1366
     32 H           2.3035    0.1981   -0.0146 H       1  LIG1        0.1375
     33 H          -2.7878    9.1672   -0.8938 H       1  LIG1        0.0907
     34 H          -2.9733    7.3945   -1.0706 H       1  LIG1        0.0909
     35 H          -1.6889    8.2540   -1.9604 H       1  LIG1        0.1238
     36 H          -0.6569    1.7001   -1.0049 H       1  LIG1        0.1659
     37 H          -0.8378    2.5486    0.5187 H       1  LIG1        0.1789
@<TRIPOS>BOND
     1     1    18    1
     2     1    19    3
     3     2     8   ar
     4     2    11   ar
     5     3     9   ar
     6     3    11   ar
     7     4     6   ar
     8     4    12   ar
     9     5     7   ar
    10     5    12   ar
    11     6    13   ar
    12     7    13   ar
    13     8    14   ar
    14     9    14   ar
    15    10    15   ar
    16    10    16   ar
    17    11    15    1
    18    12    21    1
    19    13    22    1
    20    14    23    1
    21    15    20   ar
    22    16    18    1
    23    16    21   ar
    24    17    22    1
    25    20    21   ar
    26     2    24    1
    27     3    25    1
    28     4    26    1
    29     5    27    1
    30     6    28    1
    31     7    29    1
    32     8    30    1
    33     9    31    1
    34    10    32    1
    35    17    33    1
    36    17    34    1
    37    17    35    1
    38    18    36    1
    39    18    37    1
