@<TRIPOS>MOLECULE
AO-365/43301005
 36 39 0 0 0
SMALL
USER_CHARGES

@<TRIPOS>ATOM
      1 C           0.9163    6.5209    0.6291 C.ar    1  LIG1       -0.0570
      2 C           1.0066    5.1334    0.6313 C.ar    1  LIG1       -0.0493
      3 C           5.2507    0.1232    0.3761 C.ar    1  LIG1       -0.0636
      4 C           5.4336    2.3937   -0.4292 C.ar    1  LIG1       -0.0507
      5 C           6.6406    0.0079    0.3668 C.ar    1  LIG1       -0.0533
      6 C           6.8237    2.2784   -0.4384 C.ar    1  LIG1       -0.0387
      7 C          -0.1870    7.0979    0.0210 C.ar    1  LIG1       -0.0359
      8 C          -1.0573    5.0492   -0.5474 C.ar    1  LIG1       -0.0033
      9 C           0.0053    4.3760    0.0339 C.ar    1  LIG1        0.0389
     10 C           4.6471    1.3161   -0.0220 C.ar    1  LIG1        0.0058
     11 C           7.4273    1.0854   -0.0404 C.ar    1  LIG1       -0.0002
     12 C           0.0705    2.9372    0.0199 C.ar    1  LIG1        0.1118
     13 C           0.8542    0.9290   -0.0033 C.ar    1  LIG1        0.1541
     14 C           3.1979    1.4366   -0.0122 C.ar    1  LIG1        0.1234
     15 C           9.4617   -1.2938    0.3186 C.3     1  LIG1       -0.0337
     16 C           9.3691    0.0960    0.9113 C.3     1  LIG1        0.0174
     17 N          -1.1796    6.3953   -0.5694 N.ar    1  LIG1       -0.3919
     18 N          -0.9490    2.0942    0.0175 N.ar    1  LIG1       -0.2298
     19 N          -0.4405    0.7948    0.0025 N.ar    1  LIG1       -0.2357
     20 N           2.5322    2.5590    0.0027 N.ar    1  LIG1       -0.2766
     21 N           1.2253    2.2251    0.0068 N.ar    1  LIG1       -0.2253
     22 O           8.7836    0.9731   -0.0499 O.3     1  LIG1       -0.4100
     23 S           2.2330   -0.0728   -0.0203 S.2     1  LIG1        0.0516
     24 H           1.6850    7.1314    1.0887 H       1  LIG1        0.1352
     25 H           1.8628    4.6568    1.1022 H       1  LIG1        0.1615
     26 H           4.6479   -0.7231    0.6957 H       1  LIG1        0.1482
     27 H           4.9730    3.3276   -0.7409 H       1  LIG1        0.1614
     28 H           7.1049   -0.9241    0.6778 H       1  LIG1        0.1249
     29 H           7.4312    3.1210   -0.7570 H       1  LIG1        0.1420
     30 H          -0.3044    8.1762   -0.0076 H       1  LIG1        0.2085
     31 H          -1.8716    4.5162   -1.0301 H       1  LIG1        0.2168
     32 H           8.4699   -1.6738    0.0581 H       1  LIG1        0.0588
     33 H          10.0860   -1.2891   -0.5810 H       1  LIG1        0.0490
     34 H           9.9299   -1.9851    1.0272 H       1  LIG1        0.0490
     35 H          10.3644    0.4702    1.1695 H       1  LIG1        0.0984
     36 H           8.7445    0.0897    1.8095 H       1  LIG1        0.0984
@<TRIPOS>BOND
     1     1     2   ar
     2     1     7   ar
     3     2     9   ar
     4     3     5   ar
     5     3    10   ar
     6     4     6   ar
     7     4    10   ar
     8     5    11   ar
     9     6    11   ar
    10     7    17   ar
    11     8     9   ar
    12     8    17   ar
    13     9    12    1
    14    10    14    1
    15    11    22    1
    16    12    18   ar
    17    12    21   ar
    18    13    19   ar
    19    13    21   ar
    20    13    23   ar
    21    14    20   ar
    22    14    23   ar
    23    15    16    1
    24    16    22    1
    25    18    19   ar
    26    20    21   ar
    27     1    24    1
    28     2    25    1
    29     3    26    1
    30     4    27    1
    31     5    28    1
    32     6    29    1
    33     7    30    1
    34     8    31    1
    35    15    32    1
    36    15    33    1
    37    15    34    1
    38    16    35    1
    39    16    36    1
