@<TRIPOS>MOLECULE
AN-689/41741338
 34 36 0 0 0
SMALL
USER_CHARGES

@<TRIPOS>ATOM
      1 C          -0.0371    4.8060   -1.0220 C.ar    1  LIG1       -0.0463
      2 C           0.7859    5.5456    1.1257 C.ar    1  LIG1       -0.0528
      3 C           5.3834    0.8507    0.9932 C.ar    1  LIG1       -0.0442
      4 C           5.7369    2.1265   -1.0279 C.ar    1  LIG1       -0.0411
      5 C          -0.9129    5.8910   -1.0600 C.ar    1  LIG1       -0.0388
      6 C          -0.0898    6.6305    1.0877 C.ar    1  LIG1       -0.0493
      7 C           6.6949    0.3807    0.9260 C.ar    1  LIG1       -0.0610
      8 C           7.0485    1.6565   -1.0951 C.ar    1  LIG1       -0.0587
      9 C           0.8123    4.6333    0.0708 C.ar    1  LIG1       -0.0022
     10 C           4.9043    1.7235    0.0163 C.ar    1  LIG1        0.0048
     11 C          -0.9393    6.8033   -0.0051 C.ar    1  LIG1       -0.0018
     12 C           7.5276    0.7836   -0.1181 C.ar    1  LIG1       -0.0267
     13 C           1.2615    2.2268    0.0731 C.2     1  LIG1        0.3124
     14 C           2.4845    1.3571    0.0573 C.2     1  LIG1        0.3124
     15 C           3.1212    3.5449    0.1920 C.2     1  LIG1        0.0806
     16 C          -2.6345    7.9781   -1.1891 C.3     1  LIG1        0.0268
     17 N           1.7091    3.5225    0.1098 N.am    1  LIG1       -0.2016
     18 N           3.5617    2.2050    0.0852 N.am    1  LIG1       -0.1981
     19 O           0.1555    1.7284    0.0081 O.2     1  LIG1       -0.3516
     20 O           2.3760    0.1496   -0.0203 O.2     1  LIG1       -0.3522
     21 O          -1.7939    7.8620   -0.0421 O.3     1  LIG1       -0.4118
     22 S           4.0776    4.8819    0.5676 S.2     1  LIG1       -0.1893
     23 BR          9.3046    0.1468   -0.2089 Br      1  LIG1       -0.0955
     24 H          -0.0249    4.1014   -1.8497 H       1  LIG1        0.1519
     25 H           1.4433    5.4210    1.9825 H       1  LIG1        0.1513
     26 H           4.7431    0.5302    1.8109 H       1  LIG1        0.1492
     27 H           5.3739    2.8062   -1.7944 H       1  LIG1        0.1544
     28 H          -1.5722    6.0202   -1.9140 H       1  LIG1        0.1436
     29 H          -0.1058    7.3378    1.9125 H       1  LIG1        0.1274
     30 H           7.0531   -0.2987    1.6949 H       1  LIG1        0.1494
     31 H           7.6847    1.9797   -1.9149 H       1  LIG1        0.1508
     32 H          -3.2657    8.8647   -1.0909 H       1  LIG1        0.0914
     33 H          -3.2558    7.0835   -1.2788 H       1  LIG1        0.0924
     34 H          -2.0091    8.0758   -2.0797 H       1  LIG1        0.1244
@<TRIPOS>BOND
     1     1     5   ar
     2     1     9   ar
     3     2     6   ar
     4     2     9   ar
     5     3     7   ar
     6     3    10   ar
     7     4     8   ar
     8     4    10   ar
     9     5    11   ar
    10     6    11   ar
    11     7    12   ar
    12     8    12   ar
    13     9    17    1
    14    10    18    1
    15    11    21    1
    16    12    23    1
    17    13    14    1
    18    13    17   am
    19    13    19    2
    20    14    18   am
    21    14    20    2
    22    15    17    1
    23    15    18    1
    24    15    22    2
    25    16    21    1
    26     1    24    1
    27     2    25    1
    28     3    26    1
    29     4    27    1
    30     5    28    1
    31     6    29    1
    32     7    30    1
    33     8    31    1
    34    16    32    1
    35    16    33    1
    36    16    34    1
