@<TRIPOS>MOLECULE
AB-323/25048030
 37 39 0 0 0
SMALL
USER_CHARGES

@<TRIPOS>ATOM
      1 C          -0.5086    7.0417    0.0746 C.ar    1  LIG1       -0.0960
      2 C           7.2894    1.2863   -0.0153 C.ar    1  LIG1       -0.0997
      3 C          -1.1993    6.0197   -0.5764 C.ar    1  LIG1       -0.0890
      4 C           0.7182    6.7767    0.6832 C.ar    1  LIG1       -0.0889
      5 C           6.4989    0.6897    0.9669 C.ar    1  LIG1       -0.0902
      6 C           6.6930    2.0256   -1.0367 C.ar    1  LIG1       -0.0909
      7 C          -0.6633    4.7326   -0.6190 C.ar    1  LIG1       -0.0593
      8 C           1.2543    5.4897    0.6408 C.ar    1  LIG1       -0.0593
      9 C           5.1120    0.8322    0.9278 C.ar    1  LIG1       -0.0567
     10 C           5.3059    2.1683   -1.0758 C.ar    1  LIG1       -0.0578
     11 C           0.5636    4.4676   -0.0103 C.ar    1  LIG1       -0.0056
     12 C           4.5154    1.5716   -0.0936 C.ar    1  LIG1        0.0023
     13 C           0.8443    0.7834   -0.2310 C.ar    1  LIG1        0.0573
     14 C           0.2897    1.9989   -0.1072 C.ar    1  LIG1        0.0266
     15 C           2.2974    0.5609   -0.2372 C.ar    1  LIG1        0.1422
     16 C           2.5414    3.0400   -0.1076 C.ar    1  LIG1        0.2310
     17 C          -1.9225    1.5303   -1.0159 C.3     1  LIG1       -0.0315
     18 N           1.1199    3.1317   -0.0546 N.ar    1  LIG1       -0.2132
     19 N           3.0745    1.7197   -0.1341 N.ar    1  LIG1       -0.1819
     20 N          -1.0846    2.0537    0.0182 N.pl3   1  LIG1       -0.3734
     21 O           2.6963   -0.6025   -0.2660 O.2     1  LIG1       -0.4686
     22 O           3.2600    4.0420   -0.2201 O.2     1  LIG1       -0.4221
     23 H          -0.9253    8.0442    0.1072 H       1  LIG1        0.1292
     24 H           8.3695    1.1761    0.0154 H       1  LIG1        0.1226
     25 H          -2.1541    6.2257   -1.0511 H       1  LIG1        0.1293
     26 H           1.2564    7.5731    1.1892 H       1  LIG1        0.1300
     27 H           6.9631    0.1147    1.7629 H       1  LIG1        0.1254
     28 H           7.3088    2.4909   -1.8009 H       1  LIG1        0.1247
     29 H          -1.2106    3.9440   -1.1294 H       1  LIG1        0.1358
     30 H           2.2113    5.2950    1.1185 H       1  LIG1        0.1358
     31 H           4.5060    0.3629    1.6987 H       1  LIG1        0.1346
     32 H           4.8521    2.7468   -1.8766 H       1  LIG1        0.1321
     33 H           0.2271   -0.1089   -0.2930 H       1  LIG1        0.1402
     34 H          -1.3107    1.1278   -1.8276 H       1  LIG1        0.0878
     35 H          -2.5649    2.3188   -1.4173 H       1  LIG1        0.0813
     36 H          -2.5546    0.7301   -0.6216 H       1  LIG1        0.1001
     37 H          -1.4296    2.4655    0.8450 H       1  LIG1        0.3155
@<TRIPOS>BOND
     1     1     3   ar
     2     1     4   ar
     3     2     5   ar
     4     2     6   ar
     5     3     7   ar
     6     4     8   ar
     7     5     9   ar
     8     6    10   ar
     9     7    11   ar
    10     8    11   ar
    11     9    12   ar
    12    10    12   ar
    13    11    18    1
    14    12    19    1
    15    13    14   ar
    16    13    15   ar
    17    14    18   ar
    18    14    20    1
    19    15    19   ar
    20    15    21    2
    21    16    18   ar
    22    16    19   ar
    23    16    22    2
    24    17    20    1
    25     1    23    1
    26     2    24    1
    27     3    25    1
    28     4    26    1
    29     5    27    1
    30     6    28    1
    31     7    29    1
    32     8    30    1
    33     9    31    1
    34    10    32    1
    35    13    33    1
    36    17    34    1
    37    17    35    1
    38    17    36    1
    39    20    37    1
