@<TRIPOS>MOLECULE
AG-690/10678060
 46 49 0 0 0
SMALL
USER_CHARGES

@<TRIPOS>ATOM
      1 C          -2.6434    0.5228    0.0258 C.ar    1  LIG1       -0.1076
      2 C          -2.3709    1.7478    0.6347 C.ar    1  LIG1       -0.1017
      3 C          -1.6175   -0.1928   -0.5915 C.ar    1  LIG1       -0.1009
      4 C          -1.0724    2.2573    0.6261 C.ar    1  LIG1       -0.0794
      5 C          -0.3189    0.3167   -0.6000 C.ar    1  LIG1       -0.0777
      6 C           5.3598    1.0089    1.0022 C.ar    1  LIG1       -0.0645
      7 C           5.6309    2.1932   -1.0862 C.ar    1  LIG1       -0.0752
      8 C          -0.0635    4.8598   -1.0184 C.ar    1  LIG1       -0.0672
      9 C           0.9643    5.5121    1.0685 C.ar    1  LIG1       -0.0832
     10 C           6.7135    0.6731    0.9874 C.ar    1  LIG1       -0.0926
     11 C           6.9846    1.8575   -1.1009 C.ar    1  LIG1       -0.0990
     12 C          -0.8305    6.0246   -1.0047 C.ar    1  LIG1       -0.0500
     13 C           0.1973    6.6771    1.0821 C.ar    1  LIG1       -0.0675
     14 C          -0.0465    1.5418    0.0088 C.ar    1  LIG1       -0.0414
     15 C           0.8340    4.6034    0.0184 C.ar    1  LIG1       -0.0506
     16 C           4.8185    1.7690   -0.0346 C.ar    1  LIG1       -0.0171
     17 C           7.5259    1.0974   -0.0641 C.ar    1  LIG1       -0.1149
     18 C          -0.7001    6.9333    0.0454 C.ar    1  LIG1       -0.0126
     19 C           1.2904    2.0661   -0.0003 C.ar    1  LIG1       -0.0014
     20 C           1.6267    3.3993    0.0043 C.ar    1  LIG1       -0.0208
     21 C           3.4182    2.1163   -0.0195 C.ar    1  LIG1        0.0145
     22 C           8.9732    0.7379   -0.0800 C.3     1  LIG1       -0.0424
     23 C          -2.3462    8.2692   -1.0324 C.3     1  LIG1        0.0239
     24 N           2.4101    1.2727   -0.0148 N.ar    1  LIG1       -0.3621
     25 N           2.9929    3.4156   -0.0077 N.ar    1  LIG1       -0.3273
     26 O          -1.4486    8.0701    0.0586 O.3     1  LIG1       -0.4173
     27 H          -3.6541    0.1253    0.0332 H       1  LIG1        0.1139
     28 H          -3.1693    2.3045    1.1164 H       1  LIG1        0.1154
     29 H          -1.8296   -1.1472   -1.0644 H       1  LIG1        0.1158
     30 H          -0.8760    3.2137    1.1051 H       1  LIG1        0.1229
     31 H           0.4698   -0.2533   -1.0854 H       1  LIG1        0.1278
     32 H           4.7395    0.6704    1.8287 H       1  LIG1        0.1436
     33 H           5.2239    2.7866   -1.9015 H       1  LIG1        0.1187
     34 H          -0.1766    4.1612   -1.8441 H       1  LIG1        0.1447
     35 H           1.6595    5.3267    1.8840 H       1  LIG1        0.1281
     36 H           7.1268    0.0803    1.7991 H       1  LIG1        0.1236
     37 H           7.6099    2.1925   -1.9242 H       1  LIG1        0.1205
     38 H          -1.5279    6.2188   -1.8151 H       1  LIG1        0.1335
     39 H           0.3032    7.3812    1.9029 H       1  LIG1        0.1137
     40 H           9.1244   -0.2154   -0.6012 H       1  LIG1        0.0581
     41 H           9.5699    1.5087   -0.5848 H       1  LIG1        0.0550
     42 H           9.3718    0.6445    0.9388 H       1  LIG1        0.0540
     43 H          -2.8807    9.2127   -0.8978 H       1  LIG1        0.1224
     44 H          -3.0558    7.4392   -1.0778 H       1  LIG1        0.0890
     45 H          -1.7730    8.3071   -1.9618 H       1  LIG1        0.0896
     46 H           3.5821    4.2384   -0.0083 H       1  LIG1        0.3456
@<TRIPOS>BOND
     1     1     2   ar
     2     1     3   ar
     3     2     4   ar
     4     3     5   ar
     5     4    14   ar
     6     5    14   ar
     7     6    10   ar
     8     6    16   ar
     9     7    11   ar
    10     7    16   ar
    11     8    12   ar
    12     8    15   ar
    13     9    13   ar
    14     9    15   ar
    15    10    17   ar
    16    11    17   ar
    17    12    18   ar
    18    13    18   ar
    19    14    19    1
    20    15    20    1
    21    16    21    1
    22    17    22    1
    23    18    26    1
    24    19    20   ar
    25    19    24   ar
    26    20    25   ar
    27    21    24   ar
    28    21    25   ar
    29    23    26    1
    30     1    27    1
    31     2    28    1
    32     3    29    1
    33     4    30    1
    34     5    31    1
    35     6    32    1
    36     7    33    1
    37     8    34    1
    38     9    35    1
    39    10    36    1
    40    11    37    1
    41    12    38    1
    42    13    39    1
    43    22    40    1
    44    22    41    1
    45    22    42    1
    46    23    43    1
    47    23    44    1
    48    23    45    1
    49    25    46    1
