@<TRIPOS>MOLECULE
AE-842/31986027
 41 43 0 0 0
SMALL
USER_CHARGES

@<TRIPOS>ATOM
      1 C          -0.7877    6.6346    0.0456 C.ar    1  LIG1       -0.1023
      2 C           7.4802    1.1563   -0.0618 C.ar    1  LIG1       -0.0983
      3 C          -0.8912    5.7242   -1.0060 C.ar    1  LIG1       -0.0975
      4 C           0.1165    6.4030    1.0822 C.ar    1  LIG1       -0.0961
      5 C           6.6826    0.7003    0.9877 C.ar    1  LIG1       -0.0919
      6 C           6.9123    1.8970   -1.0985 C.ar    1  LIG1       -0.0884
      7 C          -0.0907    4.5820   -1.0210 C.ar    1  LIG1       -0.0756
      8 C           0.9170    5.2608    1.0673 C.ar    1  LIG1       -0.0733
      9 C           5.3172    0.9848    1.0006 C.ar    1  LIG1       -0.0569
     10 C           5.5468    2.1816   -1.0856 C.ar    1  LIG1       -0.0517
     11 C           0.8135    4.3503    0.0156 C.ar    1  LIG1       -0.0269
     12 C           1.2066    1.8342   -0.0047 C.ar    1  LIG1        0.0989
     13 C           4.7492    1.7256   -0.0360 C.ar    1  LIG1       -0.0061
     14 C           1.6376    3.1744    0.0005 C.ar    1  LIG1        0.0444
     15 C           2.3673    1.1002   -0.0199 C.ar    1  LIG1       -0.0005
     16 C          -0.1230    1.2989    0.0035 C.2     1  LIG1        0.1899
     17 C           2.5893   -0.3607   -0.0318 C.3     1  LIG1        0.0038
     18 C          -2.9425    1.7421   -1.3972 C.3     1  LIG1       -0.0334
     19 C          -2.4560    1.8735    0.0303 C.3     1  LIG1        0.0274
     20 N           2.9684    3.2879   -0.0103 N.ar    1  LIG1       -0.2996
     21 N           3.3836    2.0099   -0.0223 N.ar    1  LIG1       -0.2823
     22 O          -0.4108    0.0823   -0.0023 O.2     1  LIG1       -0.4383
     23 O          -1.0843    2.2834    0.0197 O.3     1  LIG1       -0.3493
     24 H          -1.4101    7.5246    0.0569 H       1  LIG1        0.1219
     25 H           8.5436    0.9365   -0.0715 H       1  LIG1        0.1241
     26 H          -1.5942    5.9050   -1.8139 H       1  LIG1        0.1213
     27 H           0.1978    7.1127    1.9002 H       1  LIG1        0.1216
     28 H           7.1248    0.1246    1.7955 H       1  LIG1        0.1303
     29 H           7.5343    2.2529   -1.9147 H       1  LIG1        0.1303
     30 H          -0.1831    3.8816   -1.8479 H       1  LIG1        0.1288
     31 H           1.6169    5.0947    1.8829 H       1  LIG1        0.1329
     32 H           4.7069    0.6241    1.8250 H       1  LIG1        0.1333
     33 H           5.1173    2.7606   -1.8995 H       1  LIG1        0.1405
     34 H           2.6396   -0.7448   -1.0631 H       1  LIG1        0.0880
     35 H           3.5270   -0.6393    0.4773 H       1  LIG1        0.0854
     36 H           1.7843   -0.9040    0.4909 H       1  LIG1        0.0837
     37 H          -2.8679    2.6974   -1.9243 H       1  LIG1        0.0486
     38 H          -2.3548    0.9931   -1.9380 H       1  LIG1        0.0591
     39 H          -3.9846    1.4064   -1.4204 H       1  LIG1        0.0489
     40 H          -2.5333    0.9148    0.5517 H       1  LIG1        0.1024
     41 H          -3.0438    2.6228    0.5688 H       1  LIG1        0.1029
@<TRIPOS>BOND
     1     1     3   ar
     2     1     4   ar
     3     2     5   ar
     4     2     6   ar
     5     3     7   ar
     6     4     8   ar
     7     5     9   ar
     8     6    10   ar
     9     7    11   ar
    10     8    11   ar
    11     9    13   ar
    12    10    13   ar
    13    11    14    1
    14    12    14   ar
    15    12    15   ar
    16    12    16    1
    17    13    21    1
    18    14    20   ar
    19    15    17    1
    20    15    21   ar
    21    16    22    2
    22    16    23    1
    23    18    19    1
    24    19    23    1
    25    20    21   ar
    26     1    24    1
    27     2    25    1
    28     3    26    1
    29     4    27    1
    30     5    28    1
    31     6    29    1
    32     7    30    1
    33     8    31    1
    34     9    32    1
    35    10    33    1
    36    17    34    1
    37    17    35    1
    38    17    36    1
    39    18    37    1
    40    18    38    1
    41    18    39    1
    42    19    40    1
    43    19    41    1
