@<TRIPOS>MOLECULE
AG-690/10687051
 43 46 0 0 0
SMALL
USER_CHARGES

@<TRIPOS>ATOM
      1 C          -2.6436    0.5230    0.0269 C.ar    1  LIG1       -0.1076
      2 C          -2.3710    1.7480    0.6355 C.ar    1  LIG1       -0.1009
      3 C          -1.6179   -0.1927   -0.5905 C.ar    1  LIG1       -0.1018
      4 C          -1.0725    2.2575    0.6267 C.ar    1  LIG1       -0.0777
      5 C          -0.3193    0.3167   -0.5993 C.ar    1  LIG1       -0.0794
      6 C          -0.0635    4.8597   -1.0182 C.ar    1  LIG1       -0.0734
      7 C           0.9646    5.5121    1.0684 C.ar    1  LIG1       -0.0765
      8 C           5.3597    1.0086    1.0018 C.ar    1  LIG1       -0.0632
      9 C           5.6308    2.1934   -1.0862 C.ar    1  LIG1       -0.0527
     10 C          -0.8305    6.0246   -1.0046 C.ar    1  LIG1       -0.0545
     11 C           0.1977    6.6772    1.0819 C.ar    1  LIG1       -0.0623
     12 C           6.7135    0.6733    0.9874 C.ar    1  LIG1       -0.0754
     13 C           6.9847    1.8580   -1.1006 C.ar    1  LIG1       -0.0692
     14 C          -0.0466    1.5418    0.0093 C.ar    1  LIG1       -0.0412
     15 C           0.8340    4.6034    0.0184 C.ar    1  LIG1       -0.0495
     16 C           4.8183    1.7687   -0.0350 C.ar    1  LIG1       -0.0093
     17 C          -0.6998    6.9334    0.0454 C.ar    1  LIG1       -0.0124
     18 C           7.5260    1.0980   -0.0637 C.ar    1  LIG1       -0.0380
     19 C           1.2902    2.0660   -0.0001 C.ar    1  LIG1        0.0003
     20 C           1.6266    3.3992    0.0043 C.ar    1  LIG1       -0.0192
     21 C           3.4181    2.1160   -0.0196 C.ar    1  LIG1        0.0181
     22 C          -2.3460    8.2693   -1.0323 C.3     1  LIG1        0.0241
     23 N           2.4099    1.2725   -0.0147 N.ar    1  LIG1       -0.3605
     24 N           2.9929    3.4154   -0.0079 N.ar    1  LIG1       -0.3257
     25 O          -1.4483    8.0702    0.0586 O.3     1  LIG1       -0.4172
     26 BR          9.3613    0.6469   -0.0819 Br      1  LIG1       -0.1088
     27 H          -3.6544    0.1256    0.0345 H       1  LIG1        0.1140
     28 H          -3.1692    2.3049    1.1173 H       1  LIG1        0.1160
     29 H          -1.8302   -1.1471   -1.0633 H       1  LIG1        0.1152
     30 H          -0.8759    3.2140    1.1055 H       1  LIG1        0.1279
     31 H           0.4693   -0.2535   -1.0848 H       1  LIG1        0.1235
     32 H          -0.1769    4.1611   -1.8438 H       1  LIG1        0.1344
     33 H           1.6599    5.3268    1.8838 H       1  LIG1        0.1396
     34 H           4.7394    0.6698    1.8284 H       1  LIG1        0.1291
     35 H           5.2238    2.7868   -1.9015 H       1  LIG1        0.1532
     36 H          -1.5280    6.2188   -1.8149 H       1  LIG1        0.1307
     37 H           0.3038    7.3814    1.9026 H       1  LIG1        0.1169
     38 H           7.1199    0.0807    1.8030 H       1  LIG1        0.1384
     39 H           7.6044    2.1978   -1.9266 H       1  LIG1        0.1412
     40 H          -2.8804    9.2128   -0.8978 H       1  LIG1        0.0896
     41 H          -3.0557    7.4394   -1.0775 H       1  LIG1        0.1224
     42 H          -1.7730    8.3071   -1.9618 H       1  LIG1        0.0903
     43 H           3.5821    4.2382   -0.0087 H       1  LIG1        0.3514
@<TRIPOS>BOND
     1     1     2   ar
     2     1     3   ar
     3     2     4   ar
     4     3     5   ar
     5     4    14   ar
     6     5    14   ar
     7     6    10   ar
     8     6    15   ar
     9     7    11   ar
    10     7    15   ar
    11     8    12   ar
    12     8    16   ar
    13     9    13   ar
    14     9    16   ar
    15    10    17   ar
    16    11    17   ar
    17    12    18   ar
    18    13    18   ar
    19    14    19    1
    20    15    20    1
    21    16    21    1
    22    17    25    1
    23    18    26    1
    24    19    20   ar
    25    19    23   ar
    26    20    24   ar
    27    21    23   ar
    28    21    24   ar
    29    22    25    1
    30     1    27    1
    31     2    28    1
    32     3    29    1
    33     4    30    1
    34     5    31    1
    35     6    32    1
    36     7    33    1
    37     8    34    1
    38     9    35    1
    39    10    36    1
    40    11    37    1
    41    12    38    1
    42    13    39    1
    43    22    40    1
    44    22    41    1
    45    22    42    1
    46    24    43    1
