@<TRIPOS>MOLECULE
AE-842/32631029
 42 44 0 0 0
SMALL
USER_CHARGES

@<TRIPOS>ATOM
      1 C          -0.7546    6.5907    0.0448 C.ar    1  LIG1       -0.1047
      2 C          -0.8554    5.6800   -1.0068 C.ar    1  LIG1       -0.0999
      3 C           0.1501    6.3616    1.0816 C.ar    1  LIG1       -0.0944
      4 C          -0.0516    4.5401   -1.0217 C.ar    1  LIG1       -0.0757
      5 C           0.9538    5.2218    1.0667 C.ar    1  LIG1       -0.0669
      6 C           5.2537    0.5050    0.5560 C.ar    1  LIG1       -0.0555
      7 C           5.6900    2.5574   -0.6415 C.ar    1  LIG1       -0.0401
      8 C           6.6163    0.2074    0.5426 C.ar    1  LIG1       -0.0580
      9 C           7.0527    2.2599   -0.6550 C.ar    1  LIG1       -0.0419
     10 C           2.4157    1.0651   -0.0201 C.ar    1  LIG1        0.0226
     11 C           0.8531    4.3110    0.0151 C.ar    1  LIG1       -0.0215
     12 C           1.2529    1.7961   -0.0051 C.ar    1  LIG1        0.0996
     13 C           4.7905    1.6800   -0.0361 C.ar    1  LIG1       -0.0043
     14 C           7.5159    1.0848   -0.0629 C.ar    1  LIG1       -0.0077
     15 C           1.6805    3.1374    0.0001 C.ar    1  LIG1        0.0447
     16 C          -0.0708    1.2491    0.0026 C.2     1  LIG1        0.1815
     17 C          -2.8948    1.6666   -1.3983 C.3     1  LIG1       -0.0336
     18 C           9.2515   -0.4217    0.5482 C.3     1  LIG1        0.0246
     19 C          -2.4098    1.8020    0.0292 C.3     1  LIG1        0.0259
     20 N           3.0111    3.2544   -0.0105 N.ar    1  LIG1       -0.3003
     21 N           3.4295    1.9774   -0.0225 N.ar    1  LIG1       -0.2804
     22 O          -0.3484    0.0296   -0.0032 O.2     1  LIG1       -0.4472
     23 O           8.8458    0.7956   -0.0758 O.3     1  LIG1       -0.4167
     24 O          -1.0420    2.2244    0.0189 O.3     1  LIG1       -0.3534
     25 H          -1.3796    7.4789    0.0560 H       1  LIG1        0.1189
     26 H          -1.5587    5.8587   -1.8148 H       1  LIG1        0.1157
     27 H           0.2292    7.0716    1.8996 H       1  LIG1        0.1177
     28 H          -0.1419    3.8395   -1.8485 H       1  LIG1        0.1294
     29 H           1.6541    5.0576    1.8825 H       1  LIG1        0.1478
     30 H           4.5635   -0.1880    1.0313 H       1  LIG1        0.1403
     31 H           5.3422    3.4764   -1.1072 H       1  LIG1        0.1576
     32 H           6.9714   -0.7093    1.0055 H       1  LIG1        0.1261
     33 H           7.7480    2.9480   -1.1278 H       1  LIG1        0.1431
     34 H           2.5989   -0.0017   -0.0290 H       1  LIG1        0.2416
     35 H          -2.8289    2.6225   -1.9252 H       1  LIG1        0.0587
     36 H          -2.3003    0.9230   -1.9392 H       1  LIG1        0.0481
     37 H          -3.9339    1.3213   -1.4217 H       1  LIG1        0.0481
     38 H          10.3358   -0.5299    0.4668 H       1  LIG1        0.1234
     39 H           8.7530   -1.2648    0.0631 H       1  LIG1        0.0903
     40 H           8.9688   -0.3919    1.6032 H       1  LIG1        0.0903
     41 H          -2.4785    0.8425    0.5505 H       1  LIG1        0.1031
     42 H          -3.0045    2.5459    0.5679 H       1  LIG1        0.1030
@<TRIPOS>BOND
     1     1     2   ar
     2     1     3   ar
     3     2     4   ar
     4     3     5   ar
     5     4    11   ar
     6     5    11   ar
     7     6     8   ar
     8     6    13   ar
     9     7     9   ar
    10     7    13   ar
    11     8    14   ar
    12     9    14   ar
    13    10    12   ar
    14    10    21   ar
    15    11    15    1
    16    12    15   ar
    17    12    16    1
    18    13    21    1
    19    14    23    1
    20    15    20   ar
    21    16    22    2
    22    16    24    1
    23    17    19    1
    24    18    23    1
    25    19    24    1
    26    20    21   ar
    27     1    25    1
    28     2    26    1
    29     3    27    1
    30     4    28    1
    31     5    29    1
    32     6    30    1
    33     7    31    1
    34     8    32    1
    35     9    33    1
    36    10    34    1
    37    17    35    1
    38    17    36    1
    39    17    37    1
    40    18    38    1
    41    18    39    1
    42    18    40    1
    43    19    41    1
    44    19    42    1
