@<TRIPOS>MOLECULE
AI-346/11356021
 44 47 0 0 0
SMALL
USER_CHARGES

@<TRIPOS>ATOM
      1 C          -0.6082    6.7379    0.4836 C.ar    1  LIG1       -0.1066
      2 C          -1.1534    5.9464   -0.5273 C.ar    1  LIG1       -0.1036
      3 C           0.6259    6.4042    1.0416 C.ar    1  LIG1       -0.1044
      4 C           5.2043    0.6765    0.7326 C.ar    1  LIG1       -0.0694
      5 C          -0.4647    4.8213   -0.9801 C.ar    1  LIG1       -0.0937
      6 C           1.3147    5.2789    0.5887 C.ar    1  LIG1       -0.0955
      7 C           6.5522    0.3247    0.7794 C.ar    1  LIG1       -0.0610
      8 C           7.0722    2.0594   -0.8260 C.ar    1  LIG1       -0.0477
      9 C           4.7983    1.7274   -0.0927 C.ar    1  LIG1       -0.0246
     10 C           0.7693    4.4875   -0.4221 C.ar    1  LIG1       -0.0763
     11 C           5.7209    2.4209   -0.8964 C.ar    1  LIG1       -0.0730
     12 C           7.4843    1.0159    0.0054 C.ar    1  LIG1       -0.0100
     13 C           3.3835    2.1127   -0.1662 C.2     1  LIG1        0.0139
     14 C           0.0069    1.4569    0.0275 C.2     1  LIG1        0.1206
     15 C           5.3014    3.5606   -1.7985 C.3     1  LIG1       -0.0272
     16 C           3.7962    3.5693   -2.0941 C.3     1  LIG1       -0.0333
     17 C           1.5174    3.2662   -0.9130 C.3     1  LIG1        0.0359
     18 C           3.0298    3.4338   -0.7888 C.3     1  LIG1        0.0278
     19 C           0.0227   -0.0402    0.2189 C.3     1  LIG1        0.0642
     20 C           9.1538   -0.4040    0.9285 C.3     1  LIG1        0.0250
     21 N           2.3890    1.3934    0.2464 N.2     1  LIG1       -0.3102
     22 N           1.2482    2.0482   -0.1308 N.am    1  LIG1       -0.2657
     23 O          -1.0591    2.0740    0.0181 O.2     1  LIG1       -0.4693
     24 O           8.8004    0.6711    0.0601 O.3     1  LIG1       -0.4154
     25 H          -1.1439    7.6148    0.8352 H       1  LIG1        0.1159
     26 H          -2.1138    6.2068   -0.9626 H       1  LIG1        0.1176
     27 H           1.0513    7.0208    1.8278 H       1  LIG1        0.1153
     28 H           4.4932    0.1314    1.3466 H       1  LIG1        0.1466
     29 H          -0.8974    4.2103   -1.7679 H       1  LIG1        0.1207
     30 H           2.2756    5.0266    1.0294 H       1  LIG1        0.1127
     31 H           6.8724   -0.4894    1.4241 H       1  LIG1        0.1164
     32 H           7.8085    2.5910   -1.4246 H       1  LIG1        0.1335
     33 H           5.5833    4.5028   -1.3123 H       1  LIG1        0.0787
     34 H           5.8443    3.5008   -2.7492 H       1  LIG1        0.0785
     35 H           3.5216    4.4958   -2.6102 H       1  LIG1        0.0578
     36 H           3.5547    2.7363   -2.7676 H       1  LIG1        0.0660
     37 H           1.1978    3.0702   -1.9586 H       1  LIG1        0.1405
     38 H           3.3049    4.2312   -0.0857 H       1  LIG1        0.1106
     39 H           0.0937   -0.2602    1.2784 H       1  LIG1        0.0925
     40 H           0.8770   -0.4549   -0.3054 H       1  LIG1        0.0961
     41 H          -0.8921   -0.4581   -0.1876 H       1  LIG1        0.0968
     42 H          10.2318   -0.5756    0.8771 H       1  LIG1        0.1227
     43 H           8.6157   -1.3071    0.6296 H       1  LIG1        0.0905
     44 H           8.8777   -0.1397    1.9521 H       1  LIG1        0.0905
@<TRIPOS>BOND
     1     1     2   ar
     2     1     3   ar
     3     2     5   ar
     4     3     6   ar
     5     4     7   ar
     6     4     9   ar
     7     5    10   ar
     8     6    10   ar
     9     7    12   ar
    10     8    11   ar
    11     8    12   ar
    12     9    11   ar
    13     9    13    1
    14    10    17    1
    15    11    15    1
    16    12    24    1
    17    13    18    1
    18    13    21    2
    19    14    19    1
    20    14    22   am
    21    14    23    2
    22    15    16    1
    23    16    18    1
    24    17    18    1
    25    17    22    1
    26    20    24    1
    27    21    22    1
    28     1    25    1
    29     2    26    1
    30     3    27    1
    31     4    28    1
    32     5    29    1
    33     6    30    1
    34     7    31    1
    35     8    32    1
    36    15    33    1
    37    15    34    1
    38    16    35    1
    39    16    36    1
    40    17    37    1
    41    18    38    1
    42    19    39    1
    43    19    40    1
    44    19    41    1
    45    20    42    1
    46    20    43    1
    47    20    44    1
