@<TRIPOS>MOLECULE
ZINC00381685
 33 36 0 0 0
SMALL
USER_CHARGES

@<TRIPOS>ATOM
      1 C          -0.4814    7.0726    0.0473 C.ar    1  LIG1       -0.0993
      2 C           0.3591    6.6696    1.0850 C.ar    1  LIG1       -0.0955
      3 C          -0.7570    6.2003   -1.0058 C.ar    1  LIG1       -0.0952
      4 C           0.9241    5.3944    1.0696 C.ar    1  LIG1       -0.0785
      5 C          -0.1920    4.9251   -1.0211 C.ar    1  LIG1       -0.0745
      6 C           5.3280    2.0228   -1.0881 C.ar    1  LIG1       -0.0631
      7 C           5.2341    0.8270    1.0091 C.ar    1  LIG1       -0.0572
      8 C           6.7156    1.8830   -1.1056 C.ar    1  LIG1       -0.0636
      9 C           6.6218    0.6872    0.9915 C.ar    1  LIG1       -0.0602
     10 C          -1.0728    0.5874    0.0358 C.ar    1  LIG1        0.0638
     11 C           0.6485    4.5220    0.0165 C.ar    1  LIG1       -0.0267
     12 C           4.5871    1.4949   -0.0307 C.ar    1  LIG1       -0.0124
     13 C           7.3626    1.2152   -0.0659 C.ar    1  LIG1       -0.0091
     14 C           1.0203    0.7418    0.0266 C.ar    1  LIG1        0.1214
     15 C           2.5835    3.0470   -0.0093 C.ar    1  LIG1        0.0181
     16 C           1.2454    3.1742   -0.0003 C.ar    1  LIG1        0.0364
     17 C           3.1077    1.6434   -0.0118 C.ar    1  LIG1        0.0297
     18 N           0.0597   -0.1601    0.0435 N.ar    1  LIG1       -0.3082
     19 N          -0.8982    1.9051    0.0156 N.ar    1  LIG1       -0.2974
     20 N           2.3713    0.5701    0.0169 N.ar    1  LIG1       -0.2932
     21 N           0.4554    2.0195    0.0149 N.ar    1  LIG1       -0.2227
     22 CL          9.0744    1.0416   -0.0884 Cl      1  LIG1       -0.1340
     23 H          -0.9222    8.0650    0.0598 H       1  LIG1        0.1276
     24 H           0.5729    7.3483    1.9056 H       1  LIG1        0.1244
     25 H          -1.4123    6.5135   -1.8132 H       1  LIG1        0.1229
     26 H           1.5774    5.0946    1.8856 H       1  LIG1        0.1344
     27 H          -0.4164    4.2566   -1.8490 H       1  LIG1        0.1526
     28 H           4.8340    2.5455   -1.9031 H       1  LIG1        0.1447
     29 H           4.6667    0.4114    1.8379 H       1  LIG1        0.1576
     30 H           7.2804    2.2988   -1.9363 H       1  LIG1        0.1389
     31 H           7.1122    0.1646    1.8088 H       1  LIG1        0.1394
     32 H          -2.0637    0.1586    0.0444 H       1  LIG1        0.3125
     33 H           3.2722    3.8834   -0.0213 H       1  LIG1        0.1664
@<TRIPOS>BOND
     1     1     2   ar
     2     1     3   ar
     3     2     4   ar
     4     3     5   ar
     5     4    11   ar
     6     5    11   ar
     7     6     8   ar
     8     6    12   ar
     9     7     9   ar
    10     7    12   ar
    11     8    13   ar
    12     9    13   ar
    13    10    18   ar
    14    10    19   ar
    15    11    16    1
    16    12    17    1
    17    13    22    1
    18    14    18   ar
    19    14    20   ar
    20    14    21   ar
    21    15    16   ar
    22    15    17   ar
    23    16    21   ar
    24    17    20   ar
    25    19    21   ar
    26     1    23    1
    27     2    24    1
    28     3    25    1
    29     4    26    1
    30     5    27    1
    31     6    28    1
    32     7    29    1
    33     8    30    1
    34     9    31    1
    35    10    32    1
    36    15    33    1
