@<TRIPOS>MOLECULE
AK-087/42718334
 51 54 0 0 0
SMALL
USER_CHARGES

@<TRIPOS>ATOM
      1 C          -0.4052    0.4380    0.7104 C.1     1  LIG1        0.0324
      2 C           5.7713    2.6647   -0.6494 C.ar    1  LIG1       -0.0654
      3 C           0.0584    4.7625   -1.0169 C.ar    1  LIG1       -0.0494
      4 C           1.0954    5.4229    1.0629 C.ar    1  LIG1       -0.0466
      5 C           7.1262    2.3367   -0.6571 C.ar    1  LIG1       -0.0490
      6 C          -0.7112    5.9257   -1.0026 C.ar    1  LIG1       -0.0539
      7 C           0.3257    6.5862    1.0772 C.ar    1  LIG1       -0.0450
      8 C           5.2896    0.6318    0.5605 C.ar    1  LIG1       -0.0700
      9 C           2.3726    1.2597   -0.0106 C.ar    1  LIG1       -0.0363
     10 C           4.8535    1.8143   -0.0375 C.ar    1  LIG1       -0.0326
     11 C           6.6480    0.2872    0.5475 C.ar    1  LIG1       -0.0689
     12 C           0.9616    4.5111    0.0159 C.ar    1  LIG1       -0.0062
     13 C           7.5672    1.1571   -0.0506 C.ar    1  LIG1       -0.0023
     14 C          -0.5775    6.8376    0.0445 C.ar    1  LIG1       -0.0073
     15 C           3.4586    2.1555   -0.0211 C.ar    1  LIG1        0.0056
     16 C           1.2617    2.0673    0.0043 C.ar    1  LIG1       -0.0021
     17 C           7.1001   -0.9854    1.1999 C.3     1  LIG1       -0.0382
     18 C           8.4886   -1.3642    0.7046 C.3     1  LIG1       -0.0346
     19 C           9.4327   -0.1508    0.6994 C.3     1  LIG1        0.0020
     20 C          10.7625   -0.5613    0.0499 C.3     1  LIG1       -0.0333
     21 C           9.7231    0.3813    2.1109 C.3     1  LIG1       -0.0384
     22 C          -2.2307    8.1686   -1.0284 C.3     1  LIG1        0.0249
     23 C          -0.1738    1.7234    0.0223 C.3     1  LIG1        0.1202
     24 N          -0.5769   -0.5739    1.2519 N.1     1  LIG1       -0.3864
     25 N           3.0726    3.4340   -0.0136 N.ar    1  LIG1       -0.3136
     26 N           1.7315    3.3477    0.0016 N.ar    1  LIG1       -0.2913
     27 O           8.9161    0.9243   -0.1076 O.3     1  LIG1       -0.4111
     28 O          -1.3275    7.9733    0.0587 O.3     1  LIG1       -0.4159
     29 H           5.4471    3.5859   -1.1277 H       1  LIG1        0.1422
     30 H          -0.0561    4.0602   -1.8391 H       1  LIG1        0.1495
     31 H           1.7953    5.2389    1.8745 H       1  LIG1        0.1405
     32 H           7.8345    3.0025   -1.1437 H       1  LIG1        0.1313
     33 H          -1.4131    6.1165   -1.8099 H       1  LIG1        0.1246
     34 H           0.4354    7.2926    1.8956 H       1  LIG1        0.1411
     35 H           4.5751   -0.0306    1.0461 H       1  LIG1        0.1398
     36 H           2.3888    0.1790   -0.0133 H       1  LIG1        0.1356
     37 H           7.1289   -0.8661    2.2894 H       1  LIG1        0.0665
     38 H           6.3810   -1.7808    0.9720 H       1  LIG1        0.0676
     39 H           8.8936   -2.1305    1.3805 H       1  LIG1        0.0577
     40 H           8.4191   -1.8187   -0.2906 H       1  LIG1        0.0633
     41 H          11.4370    0.2896    0.0413 H       1  LIG1        0.0611
     42 H          10.5795   -0.8904   -0.9684 H       1  LIG1        0.0527
     43 H          11.2067   -1.3717    0.6200 H       1  LIG1        0.0537
     44 H          10.3920    1.2341    2.0443 H       1  LIG1        0.0447
     45 H          10.1895   -0.4009    2.7022 H       1  LIG1        0.0436
     46 H           8.7921    0.6855    2.5801 H       1  LIG1        0.0490
     47 H          -2.7660    9.1117   -0.8934 H       1  LIG1        0.0904
     48 H          -2.9394    7.3376   -1.0683 H       1  LIG1        0.0907
     49 H          -1.6622    8.2052   -1.9607 H       1  LIG1        0.1236
     50 H          -0.5833    1.6594   -1.0008 H       1  LIG1        0.1652
     51 H          -0.7679    2.5082    0.5222 H       1  LIG1        0.1781
@<TRIPOS>BOND
     1     1    23    1
     2     1    24    3
     3     2     5   ar
     4     2    10   ar
     5     3     6   ar
     6     3    12   ar
     7     4     7   ar
     8     4    12   ar
     9     5    13   ar
    10     6    14   ar
    11     7    14   ar
    12     8    10   ar
    13     8    11   ar
    14     9    15   ar
    15     9    16   ar
    16    10    15    1
    17    11    13   ar
    18    11    17    1
    19    12    26    1
    20    13    27    1
    21    14    28    1
    22    15    25   ar
    23    16    23    1
    24    16    26   ar
    25    17    18    1
    26    18    19    1
    27    19    20    1
    28    19    21    1
    29    19    27    1
    30    22    28    1
    31    25    26   ar
    32     2    29    1
    33     3    30    1
    34     4    31    1
    35     5    32    1
    36     6    33    1
    37     7    34    1
    38     8    35    1
    39     9    36    1
    40    17    37    1
    41    17    38    1
    42    18    39    1
    43    18    40    1
    44    20    41    1
    45    20    42    1
    46    20    43    1
    47    21    44    1
    48    21    45    1
    49    21    46    1
    50    22    47    1
    51    22    48    1
    52    22    49    1
    53    23    50    1
    54    23    51    1
