@<TRIPOS>MOLECULE
ZINC00209790
 42 44 0 0 0
SMALL
USER_CHARGES

@<TRIPOS>ATOM
      1 C          -0.6056    6.6516    0.0435 C.ar    1  LIG1       -0.1025
      2 C           0.2638    6.3106    1.0796 C.ar    1  LIG1       -0.0982
      3 C          -0.8239    5.7591   -1.0061 C.ar    1  LIG1       -0.0960
      4 C           0.9150    5.0772    1.0661 C.ar    1  LIG1       -0.0775
      5 C          -0.1726    4.5256   -1.0195 C.ar    1  LIG1       -0.0732
      6 C           5.3069    0.6194    1.0007 C.ar    1  LIG1       -0.0734
      7 C           6.6852    0.4056    0.9866 C.ar    1  LIG1       -0.0518
      8 C           5.4722    1.8233   -1.0873 C.ar    1  LIG1       -0.0265
      9 C           2.7500    2.8257   -0.0098 C.ar    1  LIG1       -0.0062
     10 C           0.6969    4.1847    0.0166 C.ar    1  LIG1       -0.0295
     11 C           4.7004    1.3281   -0.0363 C.ar    1  LIG1       -0.0240
     12 C           7.4570    0.9008   -0.0644 C.ar    1  LIG1        0.0371
     13 C           6.8506    1.6097   -1.1015 C.ar    1  LIG1        0.0431
     14 C           1.3724    2.9054    0.0032 C.ar    1  LIG1       -0.0033
     15 C           3.2740    1.5491   -0.0213 C.ar    1  LIG1        0.0057
     16 C           1.1909    0.6395   -0.0073 C.ar    1  LIG1        0.1375
     17 C           9.3433   -0.0478    1.0300 C.3     1  LIG1        0.0268
     18 C           8.1218    3.4144   -1.9861 C.3     1  LIG1        0.0251
     19 C          -1.0108   -0.2594    0.0086 C.3     1  LIG1        0.0499
     20 N           0.5592    1.8288    0.0048 N.ar    1  LIG1       -0.3286
     21 N           2.5210    0.4296   -0.0202 N.ar    1  LIG1       -0.3115
     22 O           8.8024    0.6858   -0.0669 O.3     1  LIG1       -0.4052
     23 O           7.5933    2.0979   -2.1337 O.3     1  LIG1       -0.4081
     24 O           0.3921   -0.4804   -0.0056 O.3     1  LIG1       -0.3377
     25 H          -1.1139    7.6113    0.0551 H       1  LIG1        0.1227
     26 H           0.4325    7.0047    1.8977 H       1  LIG1        0.1207
     27 H          -1.5017    6.0234   -1.8123 H       1  LIG1        0.1199
     28 H           1.5897    4.8260    1.8813 H       1  LIG1        0.1305
     29 H          -0.3530    3.8399   -1.8439 H       1  LIG1        0.1391
     30 H           4.7190    0.2264    1.8268 H       1  LIG1        0.1354
     31 H           7.1514   -0.1472    1.7976 H       1  LIG1        0.1289
     32 H           5.0080    2.3771   -1.9008 H       1  LIG1        0.1507
     33 H           3.3797    3.7085   -0.0109 H       1  LIG1        0.1388
     34 H          10.4243   -0.1478    0.9047 H       1  LIG1        0.0901
     35 H           8.8780   -1.0357    1.0737 H       1  LIG1        0.0901
     36 H           9.1347    0.4925    1.9565 H       1  LIG1        0.1231
     37 H           8.6927    3.6808   -2.8789 H       1  LIG1        0.1226
     38 H           8.7656    3.4528   -1.1038 H       1  LIG1        0.0901
     39 H           7.2948    4.1176   -1.8621 H       1  LIG1        0.0895
     40 H          -1.5317   -1.2200    0.0086 H       1  LIG1        0.1321
     41 H          -1.2977    0.3229   -0.8705 H       1  LIG1        0.1017
     42 H          -1.2741    0.2951    0.9124 H       1  LIG1        0.1016
@<TRIPOS>BOND
     1     1     2   ar
     2     1     3   ar
     3     2     4   ar
     4     3     5   ar
     5     4    10   ar
     6     5    10   ar
     7     6     7   ar
     8     6    11   ar
     9     7    12   ar
    10     8    11   ar
    11     8    13   ar
    12     9    14   ar
    13     9    15   ar
    14    10    14    1
    15    11    15    1
    16    12    13   ar
    17    12    22    1
    18    13    23    1
    19    14    20   ar
    20    15    21   ar
    21    16    20   ar
    22    16    21   ar
    23    16    24    1
    24    17    22    1
    25    18    23    1
    26    19    24    1
    27     1    25    1
    28     2    26    1
    29     3    27    1
    30     4    28    1
    31     5    29    1
    32     6    30    1
    33     7    31    1
    34     8    32    1
    35     9    33    1
    36    17    34    1
    37    17    35    1
    38    17    36    1
    39    18    37    1
    40    18    38    1
    41    18    39    1
    42    19    40    1
    43    19    41    1
    44    19    42    1
