@<TRIPOS>MOLECULE
AH-262/11508001
 35 38 0 0 0
SMALL
USER_CHARGES

@<TRIPOS>ATOM
      1 C          -0.6077    6.9008    0.0602 C.ar    1  LIG1       -0.1036
      2 C           7.4473    1.1272   -0.0623 C.ar    1  LIG1       -0.0944
      3 C          -1.1188    5.7556   -0.5504 C.ar    1  LIG1       -0.0988
      4 C           0.6547    6.8707    0.6530 C.ar    1  LIG1       -0.0954
      5 C           6.6365    0.6930    0.9863 C.ar    1  LIG1       -0.0846
      6 C           6.9018    1.8872   -1.0971 C.ar    1  LIG1       -0.0864
      7 C          -0.3677    4.5804   -0.5683 C.ar    1  LIG1       -0.0761
      8 C           1.4057    5.6955    0.6351 C.ar    1  LIG1       -0.0716
      9 C           5.2803    1.0186    1.0003 C.ar    1  LIG1       -0.0477
     10 C           5.5455    2.2127   -1.0832 C.ar    1  LIG1       -0.0498
     11 C           0.8946    4.5503    0.0245 C.ar    1  LIG1       -0.0281
     12 C           1.1930    2.0139   -0.0019 C.ar    1  LIG1        0.0773
     13 C           4.7347    1.7785   -0.0346 C.ar    1  LIG1        0.0109
     14 C           1.6705    3.3367    0.0064 C.ar    1  LIG1        0.0406
     15 C           2.3273    1.2370   -0.0190 C.ar    1  LIG1        0.1013
     16 C          -0.1444   -0.0507   -0.0100 C.2     1  LIG1        0.0282
     17 C           0.9642   -0.8093   -0.0267 C.2     1  LIG1        0.0341
     18 C          -0.1311    1.4461    0.0042 C.2     1  LIG1        0.1224
     19 C           2.3278   -0.1971   -0.0325 C.2     1  LIG1        0.1459
     20 N           3.0067    3.3979   -0.0046 N.ar    1  LIG1       -0.2818
     21 N           3.3787    2.1037   -0.0199 N.ar    1  LIG1       -0.2529
     22 O          -1.1665    2.0990    0.0193 O.2     1  LIG1       -0.4287
     23 O           3.3221   -0.9152   -0.0477 O.2     1  LIG1       -0.4222
     24 H          -1.1919    7.8162    0.0732 H       1  LIG1        0.1198
     25 H           8.5036    0.8755   -0.0727 H       1  LIG1        0.1298
     26 H          -2.1011    5.7791   -1.0131 H       1  LIG1        0.1179
     27 H           1.0529    7.7628    1.1272 H       1  LIG1        0.1203
     28 H           7.0613    0.1025    1.7928 H       1  LIG1        0.1327
     29 H           7.5341    2.2261   -1.9126 H       1  LIG1        0.1310
     30 H          -0.7801    3.6959   -1.0483 H       1  LIG1        0.1296
     31 H           2.3882    5.6884    1.1017 H       1  LIG1        0.1374
     32 H           4.6595    0.6745    1.8241 H       1  LIG1        0.1481
     33 H           5.1335    2.8062   -1.8957 H       1  LIG1        0.1444
     34 H          -1.1228   -0.5210   -0.0060 H       1  LIG1        0.1756
     35 H           0.9011   -1.8918   -0.0365 H       1  LIG1        0.1750
@<TRIPOS>BOND
     1     1     3   ar
     2     1     4   ar
     3     2     5   ar
     4     2     6   ar
     5     3     7   ar
     6     4     8   ar
     7     5     9   ar
     8     6    10   ar
     9     7    11   ar
    10     8    11   ar
    11     9    13   ar
    12    10    13   ar
    13    11    14    1
    14    12    14   ar
    15    12    15   ar
    16    12    18    1
    17    13    21    1
    18    14    20   ar
    19    15    19    1
    20    15    21   ar
    21    16    17    2
    22    16    18    1
    23    17    19    1
    24    18    22    2
    25    19    23    2
    26    20    21   ar
    27     1    24    1
    28     2    25    1
    29     3    26    1
    30     4    27    1
    31     5    28    1
    32     6    29    1
    33     7    30    1
    34     8    31    1
    35     9    32    1
    36    10    33    1
    37    16    34    1
    38    17    35    1
