@<TRIPOS>MOLECULE
AE-848/36049027
 43 46 0 0 0
SMALL
USER_CHARGES

@<TRIPOS>ATOM
      1 C           7.2255    0.4749    0.0242 C.ar    1  LIG1       -0.0900
      2 C           7.3086    1.5944   -0.8074 C.ar    1  LIG1       -0.0945
      3 C           1.2773    6.3433    0.4765 C.ar    1  LIG1       -0.0712
      4 C          -0.2463    4.6519   -0.3327 C.ar    1  LIG1       -0.0756
      5 C           6.0820    0.2292    0.7947 C.ar    1  LIG1       -0.0548
      6 C           6.2559    2.5105   -0.9017 C.ar    1  LIG1       -0.0682
      7 C           0.2717    7.3032    0.3634 C.ar    1  LIG1       -0.0538
      8 C          -1.2520    5.6117   -0.4457 C.ar    1  LIG1       -0.0622
      9 C           1.0184    5.0176    0.1284 C.ar    1  LIG1       -0.0414
     10 C           5.0096    1.1350    0.7179 C.ar    1  LIG1       -0.0079
     11 C           5.1248    2.2497   -0.1271 C.ar    1  LIG1       -0.0076
     12 C          -0.9930    6.9375   -0.0977 C.ar    1  LIG1       -0.0112
     13 C           3.1784    2.1826    0.9381 C.ar    1  LIG1        0.0753
     14 C           3.2668    4.0188   -0.3910 C.ar    1  LIG1       -0.0020
     15 C           2.0711    4.0127    0.2467 C.ar    1  LIG1       -0.0015
     16 C          -3.2436    7.4316   -0.6861 C.3     1  LIG1        0.0247
     17 C           0.4468    1.0215    1.5841 C.3     1  LIG1       -0.0183
     18 C           0.9459    2.4157    1.9398 C.3     1  LIG1        0.0104
     19 C          -0.0897    0.9315    0.1605 C.3     1  LIG1       -0.0297
     20 N           3.7853    1.1106    1.3748 N.ar    1  LIG1       -0.3456
     21 N           3.9374    2.8921    0.0428 N.ar    1  LIG1       -0.2927
     22 N           2.0033    2.8619    1.0697 N.ar    1  LIG1       -0.3077
     23 O          -1.1639    1.8515    0.0176 O.3     1  LIG1       -0.4979
     24 O          -1.9742    7.8742   -0.2080 O.3     1  LIG1       -0.4164
     25 H           8.0619   -0.2177    0.0749 H       1  LIG1        0.1263
     26 H           8.2098    1.7574   -1.3937 H       1  LIG1        0.1209
     27 H           2.2581    6.6437    0.8375 H       1  LIG1        0.1404
     28 H          -0.4634    3.6225   -0.6078 H       1  LIG1        0.1400
     29 H           6.0300   -0.6446    1.4366 H       1  LIG1        0.1407
     30 H           6.3204    3.3791   -1.5472 H       1  LIG1        0.1282
     31 H           0.4794    8.3344    0.6359 H       1  LIG1        0.1337
     32 H          -2.2351    5.3208   -0.8055 H       1  LIG1        0.1193
     33 H           3.6834    4.7226   -1.0923 H       1  LIG1        0.2058
     34 H          -3.9340    8.2776   -0.7259 H       1  LIG1        0.1231
     35 H          -3.6355    6.6587   -0.0202 H       1  LIG1        0.0905
     36 H          -3.1207    7.0171   -1.6896 H       1  LIG1        0.0903
     37 H           1.2672    0.3025    1.7008 H       1  LIG1        0.0701
     38 H          -0.3333    0.7029    2.2871 H       1  LIG1        0.0661
     39 H           0.1315    3.1411    1.8499 H       1  LIG1        0.1321
     40 H           1.3218    2.4488    2.9674 H       1  LIG1        0.1294
     41 H           0.6825    1.1873   -0.5716 H       1  LIG1        0.0779
     42 H          -0.4639   -0.0750   -0.0521 H       1  LIG1        0.0803
     43 H          -1.4824    1.7703   -0.8959 H       1  LIG1        0.3248
@<TRIPOS>BOND
     1     1     2   ar
     2     1     5   ar
     3     2     6   ar
     4     3     7   ar
     5     3     9   ar
     6     4     8   ar
     7     4     9   ar
     8     5    10   ar
     9     6    11   ar
    10     7    12   ar
    11     8    12   ar
    12     9    15    1
    13    10    11   ar
    14    10    20   ar
    15    11    21   ar
    16    12    24    1
    17    13    20   ar
    18    13    21   ar
    19    13    22   ar
    20    14    15   ar
    21    14    21   ar
    22    15    22   ar
    23    16    24    1
    24    17    18    1
    25    17    19    1
    26    18    22    1
    27    19    23    1
    28     1    25    1
    29     2    26    1
    30     3    27    1
    31     4    28    1
    32     5    29    1
    33     6    30    1
    34     7    31    1
    35     8    32    1
    36    14    33    1
    37    16    34    1
    38    16    35    1
    39    16    36    1
    40    17    37    1
    41    17    38    1
    42    18    39    1
    43    18    40    1
    44    19    41    1
    45    19    42    1
    46    23    43    1
