@<TRIPOS>MOLECULE
AG-205/33152055
 37 39 0 0 0
SMALL
USER_CHARGES

@<TRIPOS>ATOM
      1 C           5.4368    1.8813   -1.0863 C.ar    1  LIG1       -0.0616
      2 C           5.3493    0.6670    1.0005 C.ar    1  LIG1       -0.0486
      3 C          -0.9997    4.8790   -0.5350 C.ar    1  LIG1       -0.0824
      4 C           1.1376    4.9475    0.5894 C.ar    1  LIG1       -0.0897
      5 C          -1.0486    6.2730   -0.5269 C.ar    1  LIG1       -0.0989
      6 C           1.0887    6.3415    0.5975 C.ar    1  LIG1       -0.0999
      7 C           6.8261    1.7580   -1.0999 C.ar    1  LIG1       -0.0578
      8 C           6.7388    0.5436    0.9869 C.ar    1  LIG1       -0.0427
      9 C           4.6984    1.3358   -0.0361 C.ar    1  LIG1        0.0177
     10 C           0.0934    4.2162    0.0232 C.ar    1  LIG1       -0.0623
     11 C          -0.0044    7.0042    0.0392 C.ar    1  LIG1       -0.1164
     12 C           7.4771    1.0890   -0.0634 C.ar    1  LIG1       -0.0064
     13 C           3.2499    1.4642   -0.0218 C.2     1  LIG1        0.1158
     14 C           1.2665    2.0624    0.0004 C.2     1  LIG1        0.0822
     15 C           1.2644    0.5847   -0.0075 C.2     1  LIG1        0.2292
     16 C           0.1438    2.7825    0.0151 C.2     1  LIG1       -0.0229
     17 C          -0.0563    8.4946    0.0454 C.3     1  LIG1       -0.0408
     18 C           9.4332    0.2725    1.0149 C.3     1  LIG1        0.0266
     19 N           2.5460    2.5411   -0.0096 N.2     1  LIG1       -0.3484
     20 O           0.3249   -0.1839   -0.0028 O.2     1  LIG1       -0.4008
     21 O           2.5948    0.2813   -0.0217 O.3     1  LIG1       -0.2494
     22 O           8.8327    0.9686   -0.0762 O.3     1  LIG1       -0.4127
     23 H           4.9405    2.4044   -1.8997 H       1  LIG1        0.1496
     24 H           4.7831    0.2382    1.8233 H       1  LIG1        0.1617
     25 H          -1.8214    4.3227   -0.9798 H       1  LIG1        0.1639
     26 H           1.9965    4.4452    1.0281 H       1  LIG1        0.1311
     27 H          -1.9039    6.7810   -0.9645 H       1  LIG1        0.1169
     28 H           1.9066    6.9035    1.0407 H       1  LIG1        0.1172
     29 H           7.3958    2.1851   -1.9207 H       1  LIG1        0.1198
     30 H           7.2403    0.0217    1.7973 H       1  LIG1        0.1381
     31 H          -0.8027    2.2424    0.0505 H       1  LIG1        0.1937
     32 H          -0.5484    8.8560    0.9567 H       1  LIG1        0.0597
     33 H           0.9510    8.9286   -0.0013 H       1  LIG1        0.0552
     34 H          -0.6077    8.8777   -0.8232 H       1  LIG1        0.0557
     35 H          10.5174    0.2489    0.8805 H       1  LIG1        0.0917
     36 H           9.0387   -0.7456    1.0601 H       1  LIG1        0.0917
     37 H           9.1948    0.7951    1.9443 H       1  LIG1        0.1240
@<TRIPOS>BOND
     1     1     7   ar
     2     1     9   ar
     3     2     8   ar
     4     2     9   ar
     5     3     5   ar
     6     3    10   ar
     7     4     6   ar
     8     4    10   ar
     9     5    11   ar
    10     6    11   ar
    11     7    12   ar
    12     8    12   ar
    13     9    13    1
    14    10    16    1
    15    11    17    1
    16    12    22    1
    17    13    19    2
    18    13    21    1
    19    14    15    1
    20    14    16    2
    21    14    19    1
    22    15    20    2
    23    15    21    1
    24    18    22    1
    25     1    23    1
    26     2    24    1
    27     3    25    1
    28     4    26    1
    29     5    27    1
    30     6    28    1
    31     7    29    1
    32     8    30    1
    33    16    31    1
    34    17    32    1
    35    17    33    1
    36    17    34    1
    37    18    35    1
    38    18    36    1
    39    18    37    1
