@<TRIPOS>MOLECULE
AF-399/15104011
 40 42 0 0 0
SMALL
USER_CHARGES

@<TRIPOS>ATOM
      1 C           0.9083    5.6402    1.0897 C.ar    1  LIG1       -0.0811
      2 C          -0.0110    4.9741   -1.0431 C.ar    1  LIG1       -0.0678
      3 C           6.8068    0.6969    0.9651 C.ar    1  LIG1       -0.0385
      4 C           7.1414    1.9536   -1.0710 C.ar    1  LIG1       -0.0440
      5 C           5.4611    1.0635    0.9702 C.ar    1  LIG1       -0.0338
      6 C           5.7955    2.3201   -1.0660 C.ar    1  LIG1       -0.0403
      7 C           0.0592    6.7465    1.1102 C.ar    1  LIG1       -0.0638
      8 C          -0.8601    6.0805   -1.0226 C.ar    1  LIG1       -0.0490
      9 C           0.8732    4.7539    0.0131 C.ar    1  LIG1       -0.0481
     10 C           7.6471    1.1420   -0.0554 C.ar    1  LIG1        0.0506
     11 C           4.9554    1.8750   -0.0453 C.ar    1  LIG1       -0.0037
     12 C          -0.8251    6.9668    0.0541 C.ar    1  LIG1       -0.0097
     13 C           3.1082    3.5614    0.0155 C.ar    1  LIG1        0.0009
     14 C           1.7658    3.5910   -0.0084 C.ar    1  LIG1       -0.0154
     15 C           2.4110    1.3998   -0.0677 C.ar    1  LIG1       -0.0089
     16 C           9.0503    0.7601   -0.0607 C.2     1  LIG1        0.1824
     17 C          -2.5323    8.2111   -1.0379 C.3     1  LIG1        0.0252
     18 C          10.7363   -0.3721   -1.3129 C.3     1  LIG1        0.0368
     19 N           1.3132    2.2970   -0.0660 N.ar    1  LIG1       -0.3041
     20 N           3.5765    2.2499   -0.0392 N.ar    1  LIG1       -0.2929
     21 O           9.8527    1.0293    0.8429 O.2     1  LIG1       -0.4459
     22 O          -1.6536    8.0464    0.0741 O.3     1  LIG1       -0.4156
     23 O           9.3776    0.0622   -1.1912 O.3     1  LIG1       -0.3522
     24 S           2.1987   -0.2486   -0.0207 S.2     1  LIG1       -0.3486
     25 H           1.5921    5.4818    1.9202 H       1  LIG1        0.1302
     26 H          -0.0500    4.2922   -1.8892 H       1  LIG1        0.1454
     27 H           7.1906    0.0647    1.7615 H       1  LIG1        0.1615
     28 H           7.7872    2.3062   -1.8712 H       1  LIG1        0.1583
     29 H           4.8146    0.7109    1.7702 H       1  LIG1        0.1539
     30 H           5.4124    2.9531   -1.8626 H       1  LIG1        0.1462
     31 H           0.0910    7.4334    1.9515 H       1  LIG1        0.1187
     32 H          -1.5468    6.2467   -1.8481 H       1  LIG1        0.1373
     33 H           3.7987    4.3919    0.0602 H       1  LIG1        0.2195
     34 H          -3.1372    9.1100   -0.8953 H       1  LIG1        0.1238
     35 H          -3.1787    7.3342   -1.1257 H       1  LIG1        0.0906
     36 H          -1.9377    8.3156   -1.9484 H       1  LIG1        0.0906
     37 H          10.8638   -0.9134   -2.2536 H       1  LIG1        0.1265
     38 H          10.9896   -1.0200   -0.4700 H       1  LIG1        0.0959
     39 H          11.3910    0.5027   -1.3070 H       1  LIG1        0.0956
     40 H           0.3335    2.0323   -0.0886 H       1  LIG1        0.3734
@<TRIPOS>BOND
     1     1     7   ar
     2     1     9   ar
     3     2     8   ar
     4     2     9   ar
     5     3     5   ar
     6     3    10   ar
     7     4     6   ar
     8     4    10   ar
     9     5    11   ar
    10     6    11   ar
    11     7    12   ar
    12     8    12   ar
    13     9    14    1
    14    10    16    1
    15    11    20    1
    16    12    22    1
    17    13    14   ar
    18    13    20   ar
    19    14    19   ar
    20    15    19   ar
    21    15    20   ar
    22    15    24    2
    23    16    21    2
    24    16    23    1
    25    17    22    1
    26    18    23    1
    27     1    25    1
    28     2    26    1
    29     3    27    1
    30     4    28    1
    31     5    29    1
    32     6    30    1
    33     7    31    1
    34     8    32    1
    35    13    33    1
    36    17    34    1
    37    17    35    1
    38    17    36    1
    39    18    37    1
    40    18    38    1
    41    18    39    1
    42    19    40    1
