@<TRIPOS>MOLECULE
AE-848/34408043
 40 42 0 0 0
SMALL
USER_CHARGES

@<TRIPOS>ATOM
      1 C          -0.9599    1.8566    0.0168 C.1     1  LIG1        0.0757
      2 C           7.3939    1.0360   -0.0643 C.ar    1  LIG1       -0.1034
      3 C           6.8259    2.1638   -0.6566 C.ar    1  LIG1       -0.0994
      4 C           6.5780    0.0814    0.5430 C.ar    1  LIG1       -0.0970
      5 C           5.4419    2.3374   -0.6415 C.ar    1  LIG1       -0.0793
      6 C           5.1940    0.2550    0.5582 C.ar    1  LIG1       -0.0749
      7 C           0.9237    5.1239    1.0672 C.ar    1  LIG1       -0.0762
      8 C          -0.1948    4.6391   -1.0187 C.ar    1  LIG1       -0.0845
      9 C           0.3499    6.3953    1.0793 C.ar    1  LIG1       -0.0520
     10 C          -0.7685    5.9105   -1.0066 C.ar    1  LIG1       -0.0645
     11 C           2.6331    2.8296   -0.0067 C.ar    1  LIG1       -0.0198
     12 C           0.4732    1.7717    0.0049 C.ar    1  LIG1        0.1144
     13 C           0.6514    4.2459    0.0181 C.ar    1  LIG1       -0.0576
     14 C           4.6260    1.3829   -0.0340 C.ar    1  LIG1       -0.0323
     15 C           1.2462    2.9275    0.0054 C.ar    1  LIG1       -0.0111
     16 C          -0.4962    6.7885    0.0425 C.ar    1  LIG1       -0.0109
     17 C           3.1938    1.5627   -0.0189 C.ar    1  LIG1       -0.0038
     18 C           1.1306    0.5520   -0.0080 C.ar    1  LIG1        0.0540
     19 C          -1.9116    8.3661   -1.0362 C.3     1  LIG1        0.0249
     20 C           0.1096   -1.2690    1.7681 C.3     1  LIG1        0.0095
     21 N          -2.1183    1.9253    0.0263 N.1     1  LIG1       -0.3602
     22 N           2.4758    0.4172   -0.0198 N.ar    1  LIG1       -0.3617
     23 O          -1.0563    8.0287    0.0548 O.3     1  LIG1       -0.4157
     24 S           0.2414   -1.0041   -0.0120 S.3     1  LIG1       -0.1287
     25 H           8.4714    0.9003   -0.0778 H       1  LIG1        0.1212
     26 H           7.4609    2.9063   -1.1310 H       1  LIG1        0.1196
     27 H           7.0195   -0.7977    1.0031 H       1  LIG1        0.1189
     28 H           5.0143    3.2219   -1.1077 H       1  LIG1        0.1295
     29 H           4.5707   -0.4978    1.0348 H       1  LIG1        0.1381
     30 H           1.5810    4.8320    1.8826 H       1  LIG1        0.1375
     31 H          -0.4169    3.9662   -1.8435 H       1  LIG1        0.1383
     32 H           0.5657    7.0748    1.8993 H       1  LIG1        0.1335
     33 H          -1.4271    6.2114   -1.8169 H       1  LIG1        0.1170
     34 H           3.2598    3.7173   -0.0070 H       1  LIG1        0.1491
     35 H          -2.2909    9.3821   -0.9022 H       1  LIG1        0.0902
     36 H          -2.7432    7.6583   -1.0809 H       1  LIG1        0.0905
     37 H          -1.3399    8.3127   -1.9658 H       1  LIG1        0.1230
     38 H          -0.4220   -2.2029    1.9667 H       1  LIG1        0.0797
     39 H          -0.4388   -0.4424    2.2266 H       1  LIG1        0.0888
     40 H           1.1074   -1.3247    2.2099 H       1  LIG1        0.0797
@<TRIPOS>BOND
     1     1    12    1
     2     1    21    3
     3     2     3   ar
     4     2     4   ar
     5     3     5   ar
     6     4     6   ar
     7     5    14   ar
     8     6    14   ar
     9     7     9   ar
    10     7    13   ar
    11     8    10   ar
    12     8    13   ar
    13     9    16   ar
    14    10    16   ar
    15    11    15   ar
    16    11    17   ar
    17    12    15   ar
    18    12    18   ar
    19    13    15    1
    20    14    17    1
    21    16    23    1
    22    17    22   ar
    23    18    22   ar
    24    18    24    1
    25    19    23    1
    26    20    24    1
    27     2    25    1
    28     3    26    1
    29     4    27    1
    30     5    28    1
    31     6    29    1
    32     7    30    1
    33     8    31    1
    34     9    32    1
    35    10    33    1
    36    11    34    1
    37    19    35    1
    38    19    36    1
    39    19    37    1
    40    20    38    1
    41    20    39    1
    42    20    40    1
