@<TRIPOS>MOLECULE
AG-205/11945026
 55 58 0 0 0
SMALL
USER_CHARGES

@<TRIPOS>ATOM
      1 C          -0.1054    4.7335   -0.9606 C.ar    1  LIG1       -0.0776
      2 C           1.0189    5.5630    1.0104 C.ar    1  LIG1       -0.0652
      3 C          -0.7565    1.8263    1.3358 C.ar    1  LIG1       -0.0742
      4 C          -0.4067    0.6319   -0.7349 C.ar    1  LIG1       -0.0770
      5 C           5.4572    1.1311    0.8829 C.ar    1  LIG1       -0.0631
      6 C          -0.9491    5.8442   -0.9468 C.ar    1  LIG1       -0.0688
      7 C           0.1753    6.6738    1.0242 C.ar    1  LIG1       -0.0545
      8 C          -2.0125    1.2335    1.4656 C.ar    1  LIG1       -0.0560
      9 C          -1.6627    0.0391   -0.6052 C.ar    1  LIG1       -0.0638
     10 C           6.7828    0.7022    0.8170 C.ar    1  LIG1       -0.0649
     11 C           7.0100    1.7387   -1.3537 C.ar    1  LIG1       -0.0146
     12 C           0.8785    4.5928    0.0181 C.ar    1  LIG1       -0.0383
     13 C           0.0464    1.5255    0.2356 C.ar    1  LIG1       -0.0522
     14 C           4.9079    1.8636   -0.1694 C.ar    1  LIG1        0.0317
     15 C          -0.8087    6.8143    0.0455 C.ar    1  LIG1       -0.0172
     16 C          -2.4655    0.3400    0.4951 C.ar    1  LIG1       -0.0141
     17 C           7.5592    1.0061   -0.3013 C.ar    1  LIG1       -0.0111
     18 C           5.6843    2.1674   -1.2876 C.ar    1  LIG1        0.0406
     19 C           1.7470    3.4493    0.0049 C.ar    1  LIG1       -0.0013
     20 C           1.3445    2.1382    0.1015 C.ar    1  LIG1       -0.0236
     21 C           3.5348    2.2975   -0.0813 C.ar    1  LIG1        0.0234
     22 C          -2.6155    7.9797   -0.9709 C.3     1  LIG1        0.0221
     23 C          -4.0919   -1.1424   -0.4069 C.3     1  LIG1        0.0235
     24 C           9.3503   -0.1570    0.7453 C.3     1  LIG1        0.0261
     25 C           4.5543    2.1416   -3.3799 C.3     1  LIG1        0.0352
     26 N           3.1116    3.5417   -0.1091 N.ar    1  LIG1       -0.3551
     27 N           2.5006    1.4121    0.0444 N.ar    1  LIG1       -0.3289
     28 O          -1.6315    7.8984    0.0592 O.3     1  LIG1       -0.4203
     29 O          -3.6911   -0.2384    0.6216 O.3     1  LIG1       -0.4183
     30 O           8.8529    0.5876   -0.3654 O.3     1  LIG1       -0.4140
     31 O           5.1732    2.8820   -2.3307 O.3     1  LIG1       -0.3896
     32 H          -0.2273    3.9859   -1.7407 H       1  LIG1        0.1319
     33 H           1.7807    5.4676    1.7806 H       1  LIG1        0.1443
     34 H          -0.4176    2.5208    2.1009 H       1  LIG1        0.1331
     35 H           0.2074    0.3872   -1.5984 H       1  LIG1        0.1394
     36 H           4.8658    0.8856    1.7620 H       1  LIG1        0.1401
     37 H          -1.7137    5.9488   -1.7116 H       1  LIG1        0.1097
     38 H           0.2895    7.4255    1.8005 H       1  LIG1        0.1270
     39 H          -2.6335    1.4718    2.3249 H       1  LIG1        0.1293
     40 H          -2.0102   -0.6561   -1.3644 H       1  LIG1        0.1155
     41 H           7.2053    0.1319    1.6398 H       1  LIG1        0.1101
     42 H           7.6160    1.9750   -2.2247 H       1  LIG1        0.1274
     43 H          -3.2035    8.8918   -0.8429 H       1  LIG1        0.0876
     44 H          -3.2672    7.1037   -0.9234 H       1  LIG1        0.1201
     45 H          -2.1133    8.0058   -1.9409 H       1  LIG1        0.0882
     46 H          -5.0881   -1.5318   -0.1831 H       1  LIG1        0.1217
     47 H          -3.3739   -1.9640   -0.4712 H       1  LIG1        0.0894
     48 H          -4.1175   -0.6081   -1.3596 H       1  LIG1        0.0894
     49 H          10.3933   -0.4285    0.5652 H       1  LIG1        0.1230
     50 H           8.7464   -1.0578    0.8811 H       1  LIG1        0.0911
     51 H           9.2869    0.4607    1.6443 H       1  LIG1        0.0910
     52 H           4.1901    2.8297   -4.1467 H       1  LIG1        0.1251
     53 H           3.7236    1.5584   -2.9747 H       1  LIG1        0.0907
     54 H           5.2909    1.4656   -3.8205 H       1  LIG1        0.0906
     55 H           2.5775    0.4040    0.0878 H       1  LIG1        0.3460
@<TRIPOS>BOND
     1     1     6   ar
     2     1    12   ar
     3     2     7   ar
     4     2    12   ar
     5     3     8   ar
     6     3    13   ar
     7     4     9   ar
     8     4    13   ar
     9     5    10   ar
    10     5    14   ar
    11     6    15   ar
    12     7    15   ar
    13     8    16   ar
    14     9    16   ar
    15    10    17   ar
    16    11    17   ar
    17    11    18   ar
    18    12    19    1
    19    13    20    1
    20    14    18   ar
    21    14    21    1
    22    15    28    1
    23    16    29    1
    24    17    30    1
    25    18    31    1
    26    19    20   ar
    27    19    26   ar
    28    20    27   ar
    29    21    26   ar
    30    21    27   ar
    31    22    28    1
    32    23    29    1
    33    24    30    1
    34    25    31    1
    35     1    32    1
    36     2    33    1
    37     3    34    1
    38     4    35    1
    39     5    36    1
    40     6    37    1
    41     7    38    1
    42     8    39    1
    43     9    40    1
    44    10    41    1
    45    11    42    1
    46    22    43    1
    47    22    44    1
    48    22    45    1
    49    23    46    1
    50    23    47    1
    51    23    48    1
    52    24    49    1
    53    24    50    1
    54    24    51    1
    55    25    52    1
    56    25    53    1
    57    25    54    1
    58    27    55    1
