@<TRIPOS>MOLECULE
AF-399/13200039
 42 45 0 0 0
SMALL
USER_CHARGES

@<TRIPOS>ATOM
      1 C           5.4824    1.8737   -1.0585 C.ar    1  LIG1       -0.0703
      2 C           5.3338    0.5750    0.9733 C.ar    1  LIG1       -0.0768
      3 C           0.2822    5.2413   -1.2950 C.ar    1  LIG1       -0.0760
      4 C           0.2967    4.6280    1.0420 C.ar    1  LIG1       -0.0838
      5 C           6.8652    1.6915   -1.0739 C.ar    1  LIG1       -0.0915
      6 C           6.7166    0.3926    0.9578 C.ar    1  LIG1       -0.0954
      7 C          -0.3742    6.4307   -0.9787 C.ar    1  LIG1       -0.0502
      8 C          -0.3597    5.8175    1.3581 C.ar    1  LIG1       -0.0621
      9 C          -0.9845    0.5244   -0.0201 C.ar    1  LIG1        0.0572
     10 C           4.7167    1.3155   -0.0348 C.ar    1  LIG1       -0.0259
     11 C           0.6177    4.3399   -0.2846 C.ar    1  LIG1       -0.0623
     12 C           7.4823    0.9509   -0.0658 C.ar    1  LIG1       -0.1122
     13 C          -0.6951    6.7188    0.3478 C.ar    1  LIG1        0.0090
     14 C           1.1228    0.6444   -0.0120 C.ar    1  LIG1        0.1021
     15 C           3.2383    1.5092   -0.0176 C.2     1  LIG1        0.0144
     16 C           2.6989    2.9381    0.0552 C.3     1  LIG1        0.0513
     17 C           1.3305    3.0492   -0.6275 C.3     1  LIG1        0.0472
     18 C           8.9609    0.7554   -0.0833 C.3     1  LIG1       -0.0396
     19 C          -2.2053    8.4284   -0.3262 C.3     1  LIG1        0.2897
     20 N           0.1432   -0.2188    0.1869 N.ar    1  LIG1       -0.3149
     21 N          -0.7839    1.8025   -0.3419 N.ar    1  LIG1       -0.3055
     22 N           2.4678    0.4591   -0.0195 N.2     1  LIG1       -0.2970
     23 N           0.5544    1.8631   -0.2899 N.ar    1  LIG1       -0.2688
     24 O          -1.3345    7.8802    0.6562 O.3     1  LIG1       -0.3253
     25 F          -3.1855    9.1045    0.3270 F       1  LIG1       -0.2256
     26 F          -1.5275    9.3451   -1.0597 F       1  LIG1       -0.2251
     27 H           5.0113    2.4524   -1.8487 H       1  LIG1        0.1478
     28 H           4.7473    0.1354    1.7759 H       1  LIG1        0.1346
     29 H           0.5283    5.0249   -2.3310 H       1  LIG1        0.1346
     30 H           0.5541    3.9315    1.8357 H       1  LIG1        0.1374
     31 H           7.4539    2.1297   -1.8753 H       1  LIG1        0.1227
     32 H           7.1892   -0.1863    1.7472 H       1  LIG1        0.1222
     33 H          -0.6326    7.1291   -1.7703 H       1  LIG1        0.1376
     34 H          -0.6065    6.0363    2.3933 H       1  LIG1        0.1230
     35 H          -1.9818    0.1192    0.0654 H       1  LIG1        0.2901
     36 H           2.6716    3.2871    1.0868 H       1  LIG1        0.1109
     37 H           3.4172    3.5537   -0.4929 H       1  LIG1        0.1206
     38 H           1.4849    3.0309   -1.7420 H       1  LIG1        0.1581
     39 H           9.4593    1.5620    0.4681 H       1  LIG1        0.0605
     40 H           9.2414   -0.2028    0.3727 H       1  LIG1        0.0564
     41 H           9.3490    0.7442   -1.1101 H       1  LIG1        0.0561
     42 H          -2.6702    7.6716   -0.9670 H       1  LIG1        0.3245
@<TRIPOS>BOND
     1     1     5   ar
     2     1    10   ar
     3     2     6   ar
     4     2    10   ar
     5     3     7   ar
     6     3    11   ar
     7     4     8   ar
     8     4    11   ar
     9     5    12   ar
    10     6    12   ar
    11     7    13   ar
    12     8    13   ar
    13     9    20   ar
    14     9    21   ar
    15    10    15    1
    16    11    17    1
    17    12    18    1
    18    13    24    1
    19    14    20   ar
    20    14    22    1
    21    14    23   ar
    22    15    16    1
    23    15    22    2
    24    16    17    1
    25    17    23    1
    26    19    24    1
    27    19    25    1
    28    19    26    1
    29    21    23   ar
    30     1    27    1
    31     2    28    1
    32     3    29    1
    33     4    30    1
    34     5    31    1
    35     6    32    1
    36     7    33    1
    37     8    34    1
    38     9    35    1
    39    16    36    1
    40    16    37    1
    41    17    38    1
    42    18    39    1
    43    18    40    1
    44    18    41    1
    45    19    42    1
