@<TRIPOS>MOLECULE
AN-910/13229001
 35 37 0 0 0
SMALL
USER_CHARGES

@<TRIPOS>ATOM
      1 C           7.5494    0.9536   -0.0658 C.ar    1  LIG1       -0.1024
      2 C           6.6037    0.1166    0.5265 C.ar    1  LIG1       -0.0954
      3 C           7.1499    2.1592   -0.6427 C.ar    1  LIG1       -0.0943
      4 C           5.2584    0.4852    0.5418 C.ar    1  LIG1       -0.0605
      5 C           5.8046    2.5276   -0.6273 C.ar    1  LIG1       -0.0578
      6 C          -0.0805    4.8025   -1.0185 C.ar    1  LIG1       -0.0532
      7 C           0.9367    5.4645    1.0705 C.ar    1  LIG1       -0.0450
      8 C          -0.8577    5.9608   -1.0071 C.ar    1  LIG1       -0.0499
      9 C           0.1597    6.6227    1.0819 C.ar    1  LIG1       -0.0382
     10 C           4.8589    1.6907   -0.0351 C.ar    1  LIG1       -0.0068
     11 C           0.8166    4.5543    0.0204 C.ar    1  LIG1        0.0001
     12 C          -0.7375    6.8709    0.0431 C.ar    1  LIG1       -0.0018
     13 C           2.4069    1.2159   -0.0304 C.2     1  LIG1        0.1121
     14 C           1.1743    2.0680    0.0049 C.2     1  LIG1        0.1012
     15 C           3.0210    3.3971   -0.0260 C.2     1  LIG1        0.2426
     16 C          -2.3926    8.1923   -1.0389 C.3     1  LIG1        0.0269
     17 N           2.4016   -0.0726   -0.0217 N.2     1  LIG1       -0.3701
     18 N           3.4797    2.0684   -0.0191 N.am    1  LIG1       -0.1932
     19 N           1.6125    3.3681    0.0088 N.am    1  LIG1       -0.2030
     20 O           3.7121    4.4033   -0.1579 O.2     1  LIG1       -0.3961
     21 O          -1.4958    8.0011    0.0542 O.3     1  LIG1       -0.4118
     22 S          -0.3076    1.3405    0.1480 S.2     1  LIG1       -0.1728
     23 H           8.5970    0.6673   -0.0773 H       1  LIG1        0.1188
     24 H           6.9144   -0.8216    0.9764 H       1  LIG1        0.1269
     25 H           7.8867    2.8111   -1.1029 H       1  LIG1        0.1275
     26 H           4.5304   -0.1751    1.0064 H       1  LIG1        0.1443
     27 H           5.5049    3.4697   -1.0800 H       1  LIG1        0.1525
     28 H          -0.1823    4.1002   -1.8420 H       1  LIG1        0.1493
     29 H           1.6325    5.2814    1.8855 H       1  LIG1        0.1530
     30 H          -1.5548    6.1486   -1.8192 H       1  LIG1        0.1274
     31 H           0.2577    7.3279    1.9028 H       1  LIG1        0.1439
     32 H          -2.9356    9.1313   -0.9059 H       1  LIG1        0.0922
     33 H          -3.0949    7.3563   -1.0856 H       1  LIG1        0.0914
     34 H          -1.8176    8.2349   -1.9670 H       1  LIG1        0.1246
     35 H           1.4332   -0.4087    0.0126 H       1  LIG1        0.3178
@<TRIPOS>BOND
     1     1     2   ar
     2     1     3   ar
     3     2     4   ar
     4     3     5   ar
     5     4    10   ar
     6     5    10   ar
     7     6     8   ar
     8     6    11   ar
     9     7     9   ar
    10     7    11   ar
    11     8    12   ar
    12     9    12   ar
    13    10    18    1
    14    11    19    1
    15    12    21    1
    16    13    14    1
    17    13    17    2
    18    13    18    1
    19    14    19    1
    20    14    22    2
    21    15    18   am
    22    15    19   am
    23    15    20    2
    24    16    21    1
    25     1    23    1
    26     2    24    1
    27     3    25    1
    28     4    26    1
    29     5    27    1
    30     6    28    1
    31     7    29    1
    32     8    30    1
    33     9    31    1
    34    16    32    1
    35    16    33    1
    36    16    34    1
    37    17    35    1
