@<TRIPOS>MOLECULE
AE-842/32631033
 42 44 0 0 0
SMALL
USER_CHARGES

@<TRIPOS>ATOM
      1 C          -0.6161    6.9687    0.0443 C.ar    1  LIG1       -0.1016
      2 C           7.5551    1.1811   -0.0633 C.ar    1  LIG1       -0.1016
      3 C          -0.7790    6.0642   -1.0049 C.ar    1  LIG1       -0.0967
      4 C           0.2723    6.6820    1.0807 C.ar    1  LIG1       -0.0987
      5 C           6.7569    0.7288    0.9874 C.ar    1  LIG1       -0.0967
      6 C           6.9888    1.9228   -1.1001 C.ar    1  LIG1       -0.0987
      7 C          -0.0535    4.8729   -1.0177 C.ar    1  LIG1       -0.0795
      8 C           0.9978    5.4907    1.0680 C.ar    1  LIG1       -0.0826
      9 C           5.3924    1.0183    1.0014 C.ar    1  LIG1       -0.0795
     10 C           5.6243    2.2123   -1.0861 C.ar    1  LIG1       -0.0826
     11 C           0.8350    4.5862    0.0188 C.ar    1  LIG1       -0.0472
     12 C           4.8261    1.7600   -0.0353 C.ar    1  LIG1       -0.0472
     13 C           1.1615    2.0444    0.0015 C.ar    1  LIG1        0.0979
     14 C           2.3175    1.2255   -0.0145 C.ar    1  LIG1        0.0979
     15 C           1.5858    3.3548    0.0049 C.ar    1  LIG1       -0.0068
     16 C           3.4129    2.0605   -0.0202 C.ar    1  LIG1       -0.0068
     17 C          -0.2128    1.6247    0.0124 C.2     1  LIG1        0.1967
     18 C           2.3773   -0.2104   -0.0232 C.2     1  LIG1        0.1967
     19 C          -1.7260   -0.1015   -0.6877 C.3     1  LIG1        0.0391
     20 C           3.6653   -2.0999   -0.7511 C.3     1  LIG1        0.0391
     21 N           2.9562    3.3526   -0.0080 N.ar    1  LIG1       -0.3303
     22 O          -1.1524    2.2578    0.5358 O.2     1  LIG1       -0.4346
     23 O           1.5288   -0.9670    0.4915 O.2     1  LIG1       -0.4346
     24 O          -0.3952    0.4232   -0.6303 O.3     1  LIG1       -0.3460
     25 O           3.4930   -0.6807   -0.6742 O.3     1  LIG1       -0.3459
     26 H          -1.1807    7.8965    0.0538 H       1  LIG1        0.1226
     27 H           8.6176    0.9562   -0.0738 H       1  LIG1        0.1226
     28 H          -1.4710    6.2875   -1.8118 H       1  LIG1        0.1235
     29 H           0.3999    7.3869    1.8972 H       1  LIG1        0.1218
     30 H           7.1980    0.1511    1.7945 H       1  LIG1        0.1235
     31 H           7.6105    2.2759   -1.9177 H       1  LIG1        0.1218
     32 H          -0.1896    4.1793   -1.8441 H       1  LIG1        0.1326
     33 H           1.6856    5.2815    1.8838 H       1  LIG1        0.1252
     34 H           4.7842    0.6609    1.8289 H       1  LIG1        0.1327
     35 H           5.1978    2.7906   -1.9022 H       1  LIG1        0.1252
     36 H          -1.7202   -1.0537   -1.2239 H       1  LIG1        0.0976
     37 H          -2.3782    0.6120   -1.1976 H       1  LIG1        0.0968
     38 H          -2.0893   -0.2613    0.3302 H       1  LIG1        0.1263
     39 H           4.5873   -2.3269   -1.2920 H       1  LIG1        0.1264
     40 H           2.8096   -2.5443   -1.2655 H       1  LIG1        0.0968
     41 H           3.7302   -2.5054    0.2613 H       1  LIG1        0.0975
     42 H           3.5407    4.1778   -0.0089 H       1  LIG1        0.3573
@<TRIPOS>BOND
     1     1     3   ar
     2     1     4   ar
     3     2     5   ar
     4     2     6   ar
     5     3     7   ar
     6     4     8   ar
     7     5     9   ar
     8     6    10   ar
     9     7    11   ar
    10     8    11   ar
    11     9    12   ar
    12    10    12   ar
    13    11    15    1
    14    12    16    1
    15    13    14   ar
    16    13    15   ar
    17    13    17    1
    18    14    16   ar
    19    14    18    1
    20    15    21   ar
    21    16    21   ar
    22    17    22    2
    23    17    24    1
    24    18    23    2
    25    18    25    1
    26    19    24    1
    27    20    25    1
    28     1    26    1
    29     2    27    1
    30     3    28    1
    31     4    29    1
    32     5    30    1
    33     6    31    1
    34     7    32    1
    35     8    33    1
    36     9    34    1
    37    10    35    1
    38    19    36    1
    39    19    37    1
    40    19    38    1
    41    20    39    1
    42    20    40    1
    43    20    41    1
    44    21    42    1
