@<TRIPOS>MOLECULE
AG-690/10517051
 51 54 0 0 0
SMALL
USER_CHARGES

@<TRIPOS>ATOM
      1 C          -0.4089    4.5494   -0.5736 C.ar    1  LIG1       -0.0754
      2 C           1.2900    5.7816    0.6232 C.ar    1  LIG1       -0.0675
      3 C          -0.9112    1.8025    1.0690 C.ar    1  LIG1       -0.0736
      4 C          -0.4344    0.7117   -1.0332 C.ar    1  LIG1       -0.0768
      5 C           5.8305    2.5894   -0.6454 C.ar    1  LIG1       -0.0601
      6 C           5.1833    0.5984    0.5607 C.ar    1  LIG1       -0.0647
      7 C          -1.2344    5.6735   -0.5592 C.ar    1  LIG1       -0.0668
      8 C           0.4644    6.9058    0.6376 C.ar    1  LIG1       -0.0549
      9 C          -2.1819    1.2272    1.0793 C.ar    1  LIG1       -0.0549
     10 C          -1.7050    0.1363   -1.0230 C.ar    1  LIG1       -0.0628
     11 C           7.1543    2.1502   -0.6599 C.ar    1  LIG1       -0.0829
     12 C           6.5072    0.1592    0.5460 C.ar    1  LIG1       -0.0808
     13 C           0.8533    4.6033    0.0177 C.ar    1  LIG1       -0.0386
     14 C          -0.0374    1.5448    0.0127 C.ar    1  LIG1       -0.0506
     15 C           4.8450    1.8134   -0.0351 C.ar    1  LIG1       -0.0108
     16 C          -0.7978    6.8518    0.0464 C.ar    1  LIG1       -0.0163
     17 C          -2.5787    0.3941    0.0335 C.ar    1  LIG1       -0.0128
     18 C           7.4926    0.9352   -0.0642 C.ar    1  LIG1       -0.0710
     19 C           1.7035    3.4462    0.0037 C.ar    1  LIG1       -0.0037
     20 C           1.2758    2.1395    0.0020 C.ar    1  LIG1       -0.0214
     21 C           3.4757    2.2675   -0.0195 C.ar    1  LIG1        0.0155
     22 C          -2.8807    7.8248   -0.5623 C.3     1  LIG1        0.0225
     23 C          -4.1594   -1.0087   -1.0572 C.3     1  LIG1        0.0239
     24 C           9.2064   -0.5725    1.4534 C.3     1  LIG1       -0.0133
     25 N           3.0739    3.5191   -0.0101 N.ar    1  LIG1       -0.3632
     26 N           2.4222    1.3961   -0.0134 N.ar    1  LIG1       -0.3271
     27 O          -1.6030    7.9491    0.0603 O.3     1  LIG1       -0.4198
     28 O          -3.8186   -0.1672    0.0435 O.3     1  LIG1       -0.4175
     29 S           9.1839    0.3737   -0.0850 S.3     1  LIG1       -0.2159
     30 H          -0.7635    3.6383   -1.0498 H       1  LIG1        0.1367
     31 H           2.2710    5.8396    1.0889 H       1  LIG1        0.1378
     32 H          -0.6167    2.4497    1.8918 H       1  LIG1        0.1341
     33 H           0.2352    0.5011   -1.8639 H       1  LIG1        0.1391
     34 H           5.5824    3.5385   -1.1144 H       1  LIG1        0.1499
     35 H           4.4261   -0.0179    1.0394 H       1  LIG1        0.1293
     36 H          -2.2168    5.6260   -1.0213 H       1  LIG1        0.1114
     37 H           0.8104    7.8203    1.1118 H       1  LIG1        0.1276
     38 H          -2.8582    1.4317    1.9050 H       1  LIG1        0.1302
     39 H          -2.0086   -0.5118   -1.8405 H       1  LIG1        0.1164
     40 H           7.9088    2.7689   -1.1404 H       1  LIG1        0.1222
     41 H           6.7522   -0.7901    1.0159 H       1  LIG1        0.1327
     42 H          -3.4206    8.7713   -0.4800 H       1  LIG1        0.1206
     43 H          -3.4475    7.0264   -0.0769 H       1  LIG1        0.0887
     44 H          -2.7395    7.5791   -1.6175 H       1  LIG1        0.0884
     45 H          -5.1745   -1.3907   -0.9242 H       1  LIG1        0.1220
     46 H          -3.4510   -1.8390   -1.1153 H       1  LIG1        0.0903
     47 H          -4.1101   -0.4250   -1.9794 H       1  LIG1        0.0893
     48 H          10.1979   -1.0045    1.6097 H       1  LIG1        0.0690
     49 H           8.4702   -1.3786    1.4040 H       1  LIG1        0.0690
     50 H           8.9646    0.0814    2.2948 H       1  LIG1        0.0871
     51 H           2.4809    0.3858   -0.0186 H       1  LIG1        0.3500
@<TRIPOS>BOND
     1     1     7   ar
     2     1    13   ar
     3     2     8   ar
     4     2    13   ar
     5     3     9   ar
     6     3    14   ar
     7     4    10   ar
     8     4    14   ar
     9     5    11   ar
    10     5    15   ar
    11     6    12   ar
    12     6    15   ar
    13     7    16   ar
    14     8    16   ar
    15     9    17   ar
    16    10    17   ar
    17    11    18   ar
    18    12    18   ar
    19    13    19    1
    20    14    20    1
    21    15    21    1
    22    16    27    1
    23    17    28    1
    24    18    29    1
    25    19    20   ar
    26    19    25   ar
    27    20    26   ar
    28    21    25   ar
    29    21    26   ar
    30    22    27    1
    31    23    28    1
    32    24    29    1
    33     1    30    1
    34     2    31    1
    35     3    32    1
    36     4    33    1
    37     5    34    1
    38     6    35    1
    39     7    36    1
    40     8    37    1
    41     9    38    1
    42    10    39    1
    43    11    40    1
    44    12    41    1
    45    22    42    1
    46    22    43    1
    47    22    44    1
    48    23    45    1
    49    23    46    1
    50    23    47    1
    51    24    48    1
    52    24    49    1
    53    24    50    1
    54    26    51    1
