@<TRIPOS>MOLECULE
AH-262/11507006
 41 45 0 0 0
SMALL
USER_CHARGES

@<TRIPOS>ATOM
      1 C          -0.6524    6.9412    0.0452 C.ar    1  LIG1       -0.1039
      2 C           7.3920    1.1608   -0.0620 C.ar    1  LIG1       -0.0948
      3 C          -1.1667    5.7944   -0.5598 C.ar    1  LIG1       -0.0989
      4 C           0.6106    6.9112    0.6365 C.ar    1  LIG1       -0.0954
      5 C          -1.5795   -2.0305    0.0075 C.ar    1  LIG1       -0.0824
      6 C          -0.4203   -2.8058   -0.0079 C.ar    1  LIG1       -0.0825
      7 C           6.5828    0.7312    0.9897 C.ar    1  LIG1       -0.0847
      8 C           6.8449    1.9157   -1.0995 C.ar    1  LIG1       -0.0868
      9 C          -0.4180    4.6176   -0.5734 C.ar    1  LIG1       -0.0760
     10 C           1.3593    5.7343    0.6229 C.ar    1  LIG1       -0.0712
     11 C          -1.4950   -0.6375    0.0140 C.ar    1  LIG1       -0.0598
     12 C           0.8346   -2.1957   -0.0169 C.ar    1  LIG1       -0.0595
     13 C           5.2264    1.0563    1.0039 C.ar    1  LIG1       -0.0474
     14 C           5.4886    2.2409   -1.0854 C.ar    1  LIG1       -0.0499
     15 C           0.8450    4.5875    0.0180 C.ar    1  LIG1       -0.0275
     16 C          -0.2427   -0.0136    0.0052 C.ar    1  LIG1        0.0374
     17 C           0.9312   -0.8001   -0.0103 C.ar    1  LIG1        0.0440
     18 C           1.1401    2.0502    0.0023 C.ar    1  LIG1        0.0856
     19 C           4.6792    1.8112   -0.0337 C.ar    1  LIG1        0.0111
     20 C           1.6183    3.3722    0.0043 C.ar    1  LIG1        0.0433
     21 C           2.2701    1.2688   -0.0124 C.ar    1  LIG1        0.1096
     22 C          -0.1839    1.4813    0.0120 C.2     1  LIG1        0.1299
     23 C           2.2858   -0.1659   -0.0196 C.2     1  LIG1        0.1548
     24 N           2.9542    3.4309   -0.0094 N.ar    1  LIG1       -0.2812
     25 N           3.3229    2.1360   -0.0187 N.ar    1  LIG1       -0.2509
     26 O          -1.2023    2.1596    0.0250 O.2     1  LIG1       -0.4286
     27 O           3.2948   -0.8603   -0.0325 O.2     1  LIG1       -0.4210
     28 H          -1.2348    7.8579    0.0550 H       1  LIG1        0.1194
     29 H           8.4484    0.9095   -0.0726 H       1  LIG1        0.1293
     30 H          -2.1494    5.8179   -1.0212 H       1  LIG1        0.1175
     31 H           1.0113    7.8045    1.1063 H       1  LIG1        0.1199
     32 H          -2.5527   -2.5132    0.0143 H       1  LIG1        0.1389
     33 H          -0.4948   -3.8897   -0.0131 H       1  LIG1        0.1374
     34 H           7.0088    0.1445    1.7984 H       1  LIG1        0.1323
     35 H           7.4760    2.2511   -1.9175 H       1  LIG1        0.1306
     36 H          -0.8328    3.7318   -1.0489 H       1  LIG1        0.1296
     37 H           2.3423    5.7273    1.0883 H       1  LIG1        0.1382
     38 H          -2.4148   -0.0591    0.0259 H       1  LIG1        0.1504
     39 H           1.7204   -2.8247   -0.0288 H       1  LIG1        0.1502
     40 H           4.6070    0.7158    1.8301 H       1  LIG1        0.1487
     41 H           5.0752    2.8305   -1.9001 H       1  LIG1        0.1443
@<TRIPOS>BOND
     1     1     3   ar
     2     1     4   ar
     3     2     7   ar
     4     2     8   ar
     5     3     9   ar
     6     4    10   ar
     7     5     6   ar
     8     5    11   ar
     9     6    12   ar
    10     7    13   ar
    11     8    14   ar
    12     9    15   ar
    13    10    15   ar
    14    11    16   ar
    15    12    17   ar
    16    13    19   ar
    17    14    19   ar
    18    15    20    1
    19    16    17   ar
    20    16    22    1
    21    17    23    1
    22    18    20   ar
    23    18    21   ar
    24    18    22    1
    25    19    25    1
    26    20    24   ar
    27    21    23    1
    28    21    25   ar
    29    22    26    2
    30    23    27    2
    31    24    25   ar
    32     1    28    1
    33     2    29    1
    34     3    30    1
    35     4    31    1
    36     5    32    1
    37     6    33    1
    38     7    34    1
    39     8    35    1
    40     9    36    1
    41    10    37    1
    42    11    38    1
    43    12    39    1
    44    13    40    1
    45    14    41    1
