@<TRIPOS>MOLECULE
AG-205/11945045
 55 58 0 0 0
SMALL
USER_CHARGES

@<TRIPOS>ATOM
      1 C          -0.0181    4.7117   -0.9869 C.ar    1  LIG1       -0.0754
      2 C           1.0353    5.5112    1.0350 C.ar    1  LIG1       -0.0675
      3 C          -0.6921    1.7426    1.2220 C.ar    1  LIG1       -0.0737
      4 C          -0.2637    0.6021   -0.8642 C.ar    1  LIG1       -0.0768
      5 C           5.4133    0.7119    0.5041 C.ar    1  LIG1       -0.0724
      6 C          -0.8785    5.8095   -0.9727 C.ar    1  LIG1       -0.0668
      7 C           0.1749    6.6090    1.0493 C.ar    1  LIG1       -0.0549
      8 C          -1.9423    1.1288    1.3008 C.ar    1  LIG1       -0.0550
      9 C          -1.5138   -0.0117   -0.7855 C.ar    1  LIG1       -0.0628
     10 C           6.7488    0.3134    0.4484 C.ar    1  LIG1       -0.0541
     11 C           5.9479    2.6834   -0.7861 C.ar    1  LIG1       -0.0203
     12 C           0.9388    4.5624    0.0171 C.ar    1  LIG1       -0.0387
     13 C           0.1472    1.4792    0.1394 C.ar    1  LIG1       -0.0507
     14 C           5.0128    1.8969   -0.1134 C.ar    1  LIG1       -0.0143
     15 C          -0.7820    6.7581    0.0453 C.ar    1  LIG1       -0.0163
     16 C          -2.3530    0.2518    0.2972 C.ar    1  LIG1       -0.0129
     17 C           7.6839    1.0999   -0.2243 C.ar    1  LIG1        0.0360
     18 C           7.2834    2.2850   -0.8416 C.ar    1  LIG1        0.0441
     19 C           1.8245    3.4323    0.0034 C.ar    1  LIG1       -0.0040
     20 C           1.4392    2.1135    0.0580 C.ar    1  LIG1       -0.0214
     21 C           3.6313    2.3087   -0.0561 C.ar    1  LIG1        0.0147
     22 C          -2.5757    7.9207   -0.9973 C.3     1  LIG1        0.0225
     23 C          -3.9296   -1.2325   -0.6864 C.3     1  LIG1        0.0239
     24 C           9.3123   -0.5228    0.3847 C.3     1  LIG1        0.0257
     25 C           8.3816    2.7929   -2.8890 C.3     1  LIG1        0.0257
     26 N           3.1902    3.5471   -0.0679 N.ar    1  LIG1       -0.3632
     27 N           2.6074    1.4058    0.0186 N.ar    1  LIG1       -0.3265
     28 O          -1.6212    7.8296    0.0594 O.3     1  LIG1       -0.4198
     29 O          -3.5729   -0.3471    0.3740 O.3     1  LIG1       -0.4176
     30 O           8.9855    0.7005   -0.2716 O.3     1  LIG1       -0.4071
     31 O           8.1870    3.0618   -1.5020 O.3     1  LIG1       -0.4068
     32 H          -0.1057    3.9808   -1.7872 H       1  LIG1        0.1365
     33 H           1.7756    5.4089    1.8251 H       1  LIG1        0.1378
     34 H          -0.3863    2.4239    2.0125 H       1  LIG1        0.1340
     35 H           0.3791    0.3865   -1.7146 H       1  LIG1        0.1391
     36 H           4.6966    0.0877    1.0322 H       1  LIG1        0.1227
     37 H          -1.6219    5.9208   -1.7572 H       1  LIG1        0.1113
     38 H           0.2550    7.3440    1.8456 H       1  LIG1        0.1275
     39 H          -2.5917    1.3380    2.1466 H       1  LIG1        0.1301
     40 H          -1.8284   -0.6940   -1.5704 H       1  LIG1        0.1163
     41 H           7.0541   -0.6107    0.9315 H       1  LIG1        0.1283
     42 H           5.6451    3.6091   -1.2711 H       1  LIG1        0.1501
     43 H          -3.1809    8.8209   -0.8659 H       1  LIG1        0.1206
     44 H          -3.2151    7.0344   -0.9893 H       1  LIG1        0.0888
     45 H          -2.0457    7.9766   -1.9511 H       1  LIG1        0.0884
     46 H          -4.9259   -1.6414   -0.5012 H       1  LIG1        0.1220
     47 H          -3.1977   -2.0419   -0.7482 H       1  LIG1        0.0903
     48 H          -3.9354   -0.6766   -1.6269 H       1  LIG1        0.0893
     49 H          10.3803   -0.7243    0.2709 H       1  LIG1        0.0892
     50 H           8.7284   -1.3379   -0.0503 H       1  LIG1        0.0892
     51 H           9.0722   -0.4317    1.4467 H       1  LIG1        0.1227
     52 H           9.1266    3.4824   -3.2936 H       1  LIG1        0.0900
     53 H           7.4338    2.9108   -3.4204 H       1  LIG1        0.0903
     54 H           8.7371    1.7664   -3.0057 H       1  LIG1        0.1224
     55 H           2.6982    0.3982    0.0411 H       1  LIG1        0.3502
@<TRIPOS>BOND
     1     1     6   ar
     2     1    12   ar
     3     2     7   ar
     4     2    12   ar
     5     3     8   ar
     6     3    13   ar
     7     4     9   ar
     8     4    13   ar
     9     5    10   ar
    10     5    14   ar
    11     6    15   ar
    12     7    15   ar
    13     8    16   ar
    14     9    16   ar
    15    10    17   ar
    16    11    14   ar
    17    11    18   ar
    18    12    19    1
    19    13    20    1
    20    14    21    1
    21    15    28    1
    22    16    29    1
    23    17    18   ar
    24    17    30    1
    25    18    31    1
    26    19    20   ar
    27    19    26   ar
    28    20    27   ar
    29    21    26   ar
    30    21    27   ar
    31    22    28    1
    32    23    29    1
    33    24    30    1
    34    25    31    1
    35     1    32    1
    36     2    33    1
    37     3    34    1
    38     4    35    1
    39     5    36    1
    40     6    37    1
    41     7    38    1
    42     8    39    1
    43     9    40    1
    44    10    41    1
    45    11    42    1
    46    22    43    1
    47    22    44    1
    48    22    45    1
    49    23    46    1
    50    23    47    1
    51    23    48    1
    52    24    49    1
    53    24    50    1
    54    24    51    1
    55    25    52    1
    56    25    53    1
    57    25    54    1
    58    27    55    1
