@<TRIPOS>MOLECULE
AK-087/42718365
 38 39 0 0 0
SMALL
USER_CHARGES

@<TRIPOS>ATOM
      1 C           5.2494    2.1935   -0.8781 C.ar    1  LIG1       -0.0830
      2 C           5.1324    0.3616    0.6927 C.ar    1  LIG1       -0.0708
      3 C           1.2152    5.5781    0.7337 C.ar    1  LIG1       -0.0952
      4 C          -0.5538    4.3653   -0.3784 C.ar    1  LIG1       -0.1048
      5 C           6.6423    2.1576   -0.8162 C.ar    1  LIG1       -0.0655
      6 C           6.5254    0.3256    0.7545 C.ar    1  LIG1       -0.0508
      7 C           0.5740    6.7818    0.4411 C.ar    1  LIG1       -0.0626
      8 C          -1.1950    5.5690   -0.6709 C.ar    1  LIG1       -0.0753
      9 C           4.4943    1.2955   -0.1236 C.ar    1  LIG1       -0.0145
     10 C           0.6514    4.3700    0.3239 C.ar    1  LIG1       -0.1130
     11 C           7.2804    1.2237    0.0000 C.ar    1  LIG1       -0.0103
     12 C          -0.6313    6.7772   -0.2611 C.ar    1  LIG1       -0.0197
     13 C           3.0419    1.3326   -0.1880 C.2     1  LIG1        0.0665
     14 C           9.2264    0.2084    0.9155 C.3     1  LIG1        0.0262
     15 C          -2.4863    7.8746   -1.2663 C.3     1  LIG1        0.0220
     16 C           1.3438    3.0694    0.6403 C.3     1  LIG1       -0.0275
     17 C           2.3182    2.6629   -0.4675 C.3     1  LIG1        0.0344
     18 O           2.3687    0.2953   -0.0194 O.2     1  LIG1       -0.4677
     19 O           8.6396    1.1886    0.0607 O.3     1  LIG1       -0.4136
     20 O          -1.2574    7.9518   -0.5454 O.3     1  LIG1       -0.4212
     21 H           4.7631    2.9254   -1.5180 H       1  LIG1        0.1410
     22 H           4.5531   -0.3426    1.2845 H       1  LIG1        0.1509
     23 H           2.1539    5.5911    1.2812 H       1  LIG1        0.1295
     24 H          -1.0004    3.4286   -0.7018 H       1  LIG1        0.1238
     25 H           7.2248    2.8599   -1.4063 H       1  LIG1        0.1141
     26 H           7.0169   -0.4039    1.3925 H       1  LIG1        0.1314
     27 H           1.0181    7.7198    0.7633 H       1  LIG1        0.1258
     28 H          -2.1337    5.5587   -1.2179 H       1  LIG1        0.1092
     29 H          10.3151    0.2895    0.8704 H       1  LIG1        0.0913
     30 H           8.9110   -0.7887    0.5982 H       1  LIG1        0.0912
     31 H           8.8923    0.3851    1.9406 H       1  LIG1        0.1237
     32 H          -2.8795    8.8815   -1.4264 H       1  LIG1        0.0883
     33 H          -3.2050    7.2769   -0.7002 H       1  LIG1        0.0881
     34 H          -2.3020    7.4000   -2.2330 H       1  LIG1        0.1209
     35 H           0.5932    2.2831    0.7938 H       1  LIG1        0.0694
     36 H           1.8730    3.1611    1.5978 H       1  LIG1        0.0698
     37 H           3.0809    3.4419   -0.5843 H       1  LIG1        0.0860
     38 H           1.7708    2.5554   -1.4114 H       1  LIG1        0.0923
@<TRIPOS>BOND
     1     1     5   ar
     2     1     9   ar
     3     2     6   ar
     4     2     9   ar
     5     3     7   ar
     6     3    10   ar
     7     4     8   ar
     8     4    10   ar
     9     5    11   ar
    10     6    11   ar
    11     7    12   ar
    12     8    12   ar
    13     9    13    1
    14    10    16    1
    15    11    19    1
    16    12    20    1
    17    13    17    1
    18    13    18    2
    19    14    19    1
    20    15    20    1
    21    16    17    1
    22     1    21    1
    23     2    22    1
    24     3    23    1
    25     4    24    1
    26     5    25    1
    27     6    26    1
    28     7    27    1
    29     8    28    1
    30    14    29    1
    31    14    30    1
    32    14    31    1
    33    15    32    1
    34    15    33    1
    35    15    34    1
    36    16    35    1
    37    16    36    1
    38    17    37    1
    39    17    38    1
