@<TRIPOS>MOLECULE
AG-690/36757049
 31 33 0 0 0
SMALL
USER_CHARGES

@<TRIPOS>ATOM
      1 C           0.7112    6.5436    0.3960 C.ar    1  LIG1       -0.1115
      2 C           5.5030    2.3212   -0.6341 C.ar    1  LIG1       -0.0520
      3 C           5.2927    0.2262    0.5508 C.ar    1  LIG1       -0.0575
      4 C           6.8897    2.1721   -0.6515 C.ar    1  LIG1       -0.0453
      5 C           6.6795    0.0771    0.5334 C.ar    1  LIG1       -0.0556
      6 C           1.0936    5.1815    0.5654 C.ar    1  LIG1       -0.0963
      7 C          -0.5060    6.6643   -0.2374 C.ar    1  LIG1       -0.0334
      8 C           4.7044    1.3482   -0.0329 C.ar    1  LIG1        0.0182
      9 C           7.4780    1.0501   -0.0678 C.ar    1  LIG1       -0.0068
     10 C           0.1537    4.3130    0.0553 C.ar    1  LIG1        0.0034
     11 C           3.2586    1.5033   -0.0148 C.2     1  LIG1        0.1160
     12 C           1.2866    2.1380    0.0155 C.2     1  LIG1        0.0853
     13 C           1.2571    0.6606   -0.0023 C.2     1  LIG1        0.2291
     14 C           0.1775    2.8787    0.0374 C.2     1  LIG1       -0.0103
     15 C           9.3657   -0.2666    0.5305 C.3     1  LIG1        0.0264
     16 N           2.5748    2.5929    0.0062 N.2     1  LIG1       -0.3485
     17 O           0.3035   -0.0904   -0.0009 O.2     1  LIG1       -0.4021
     18 O           2.5816    0.3328   -0.0213 O.3     1  LIG1       -0.2493
     19 O           8.8311    0.9045   -0.0845 O.3     1  LIG1       -0.4130
     20 S          -1.1828    5.1398   -0.6248 S.2     1  LIG1       -0.0867
     21 H           1.2999    7.3916    0.7212 H       1  LIG1        0.1072
     22 H           5.0557    3.1996   -1.0923 H       1  LIG1        0.1547
     23 H           4.6792   -0.5377    1.0216 H       1  LIG1        0.1574
     24 H           7.5063    2.9336   -1.1211 H       1  LIG1        0.1367
     25 H           7.1320   -0.7989    0.9899 H       1  LIG1        0.1205
     26 H           2.0142    4.8640    1.0393 H       1  LIG1        0.1344
     27 H          -1.0299    7.5748   -0.4917 H       1  LIG1        0.1618
     28 H          -0.7788    2.3560    0.0711 H       1  LIG1        0.2102
     29 H          10.4553   -0.2580    0.4468 H       1  LIG1        0.1237
     30 H           8.9591   -1.1548    0.0402 H       1  LIG1        0.0916
     31 H           9.0837   -0.2742    1.5860 H       1  LIG1        0.0916
@<TRIPOS>BOND
     1     1     6   ar
     2     1     7   ar
     3     2     4   ar
     4     2     8   ar
     5     3     5   ar
     6     3     8   ar
     7     4     9   ar
     8     5     9   ar
     9     6    10   ar
    10     7    20   ar
    11     8    11    1
    12     9    19    1
    13    10    14    1
    14    10    20   ar
    15    11    16    2
    16    11    18    1
    17    12    13    1
    18    12    14    2
    19    12    16    1
    20    13    17    2
    21    13    18    1
    22    15    19    1
    23     1    21    1
    24     2    22    1
    25     3    23    1
    26     4    24    1
    27     5    25    1
    28     6    26    1
    29     7    27    1
    30    14    28    1
    31    15    29    1
    32    15    30    1
    33    15    31    1
