@<TRIPOS>MOLECULE
AO-476/14976017
 28 30 0 0 0
SMALL
USER_CHARGES

@<TRIPOS>ATOM
      1 C           7.4426    1.1209   -0.0502 C.ar    1  LIG1       -0.0957
      2 C           6.5304    0.2837    0.5921 C.ar    1  LIG1       -0.1009
      3 C           6.9964    2.2757   -0.6930 C.ar    1  LIG1       -0.0993
      4 C           5.1723    0.6012    0.5916 C.ar    1  LIG1       -0.0930
      5 C           5.6382    2.5932   -0.6935 C.ar    1  LIG1       -0.1004
      6 C           1.6381    3.2942   -0.0772 C.ar    1  LIG1        0.1232
      7 C           1.2019    1.9721   -0.0263 C.ar    1  LIG1       -0.2964
      8 C           4.7261    1.7559   -0.0512 C.ar    1  LIG1        0.1095
      9 C           2.3288    1.1918   -0.0102 C.ar    1  LIG1        0.3567
     10 C           1.2747   -0.7299    0.0603 C.ar    1  LIG1        0.4113
     11 C          -0.0888    1.3259    0.0104 C.ar    1  LIG1        0.5576
     12 N           2.9763    3.3657   -0.0935 N.ar    1  LIG1       -0.2164
     13 N           2.4422   -0.1555    0.0365 N.ar    1  LIG1       -0.4796
     14 N           3.3681    2.0726   -0.0511 N.ar    1  LIG1       -0.2756
     15 N          -0.0025   -0.0212    0.0378 N.ar    1  LIG1       -0.2712
     16 N          -1.1910   -0.7054    0.0728 N.pl3   1  LIG1       -0.7742
     17 N          -1.1704    2.0966    0.0188 N.2     1  LIG1       -0.7721
     18 H           8.5004    0.8752   -0.0487 H       1  LIG1        0.1393
     19 H           6.8777   -0.6148    1.0937 H       1  LIG1        0.1422
     20 H           7.7076    2.9279   -1.1918 H       1  LIG1        0.1417
     21 H           4.4719   -0.0597    1.0967 H       1  LIG1        0.1382
     22 H           5.3042    3.4968   -1.1978 H       1  LIG1        0.1350
     23 H           1.0657    4.2099   -0.1027 H       1  LIG1        0.2168
     24 H           1.1861   -1.8276    0.1001 H       1  LIG1        0.2429
     25 H          -1.1201   -1.6222   -0.4048 H       1  LIG1        0.4758
     26 H          -1.9316   -0.2108   -0.4561 H       1  LIG1        0.4470
     27 H          -1.0729    3.0994   -0.0001 H       1  LIG1        0.4541
     28 H          -2.0862    1.6768    0.0443 H       1  LIG1        0.4837
@<TRIPOS>BOND
     1     1     2   ar
     2     1     3   ar
     3     2     4   ar
     4     3     5   ar
     5     4     8   ar
     6     5     8   ar
     7     6     7   ar
     8     6    12   ar
     9     7     9   ar
    10     7    11   ar
    11     8    14    1
    12     9    13   ar
    13     9    14   ar
    14    10    13   ar
    15    10    15   ar
    16    11    15   ar
    17    11    17    2
    18    12    14   ar
    19    15    16    1
    20     1    18    1
    21     2    19    1
    22     3    20    1
    23     4    21    1
    24     5    22    1
    25     6    23    1
    26    10    24    1
    27    16    25    1
    28    16    26    1
    29    17    27    1
    30    17    28    1
