@<TRIPOS>MOLECULE
AK-777/36976001
 37 39 0 0 0
SMALL
USER_CHARGES

@<TRIPOS>ATOM
      1 C          -0.9336    1.8199    0.1130 C.1     1  LIG1        0.0768
      2 C           6.8260    0.7053    0.1224 C.ar    1  LIG1       -0.1026
      3 C           0.8919    5.1551    1.0440 C.ar    1  LIG1       -0.0746
      4 C          -0.2833    4.6051   -0.9940 C.ar    1  LIG1       -0.0855
      5 C           0.2836    6.4102    1.0561 C.ar    1  LIG1       -0.0515
      6 C          -0.8917    5.8602   -0.9818 C.ar    1  LIG1       -0.0644
      7 C           5.4435    0.4878    0.3898 C.ar    1  LIG1       -0.0837
      8 C           2.6273    2.8914   -0.0524 C.ar    1  LIG1       -0.0130
      9 C           7.0395    1.8677   -0.5853 C.ar    1  LIG1       -0.0429
     10 C           0.5000    1.7743    0.0518 C.ar    1  LIG1        0.1166
     11 C           0.6087    4.2526    0.0189 C.ar    1  LIG1       -0.0567
     12 C           1.2394    2.9510    0.0063 C.ar    1  LIG1       -0.0080
     13 C          -0.6083    6.7628    0.0433 C.ar    1  LIG1       -0.0105
     14 C           3.2229    1.6404   -0.0630 C.ar    1  LIG1        0.0081
     15 C           4.6529    1.4924   -0.1237 C.ar    1  LIG1        0.0142
     16 C           1.1907    0.5734    0.0362 C.ar    1  LIG1        0.0578
     17 C          -2.1036    8.2825   -1.0103 C.3     1  LIG1        0.0251
     18 C          -0.5100   -0.8251    1.6687 C.3     1  LIG1        0.0103
     19 N          -2.0925    1.8567    0.1624 N.1     1  LIG1       -0.3598
     20 N           2.5380    0.4757   -0.0201 N.ar    1  LIG1       -0.3535
     21 O          -1.2023    7.9871    0.0556 O.3     1  LIG1       -0.4155
     22 S           5.5770    2.6912   -0.9245 S.2     1  LIG1       -0.1154
     23 S           0.3460   -1.0066    0.0905 S.3     1  LIG1       -0.1263
     24 H           7.6237    0.0436    0.4338 H       1  LIG1        0.1162
     25 H           1.5848    4.8949    1.8406 H       1  LIG1        0.1443
     26 H          -0.5145    3.9127   -1.7998 H       1  LIG1        0.1325
     27 H           0.5081    7.1090    1.8574 H       1  LIG1        0.1344
     28 H          -1.5858    6.1293   -1.7734 H       1  LIG1        0.1168
     29 H           5.0565   -0.3651    0.9338 H       1  LIG1        0.1346
     30 H           3.2288    3.7957   -0.0887 H       1  LIG1        0.1508
     31 H           7.9844    2.2729   -0.9190 H       1  LIG1        0.1725
     32 H          -2.5065    9.2898   -0.8792 H       1  LIG1        0.0903
     33 H          -2.9159    7.5515   -1.0150 H       1  LIG1        0.0902
     34 H          -1.5627    8.2294   -1.9582 H       1  LIG1        0.1233
     35 H          -1.0972   -1.7226    1.8783 H       1  LIG1        0.0800
     36 H          -1.1792    0.0380    1.6308 H       1  LIG1        0.0801
     37 H           0.2175   -0.6785    2.4708 H       1  LIG1        0.0891
@<TRIPOS>BOND
     1     1    10    1
     2     1    19    3
     3     2     7   ar
     4     2     9   ar
     5     3     5   ar
     6     3    11   ar
     7     4     6   ar
     8     4    11   ar
     9     5    13   ar
    10     6    13   ar
    11     7    15   ar
    12     8    12   ar
    13     8    14   ar
    14     9    22   ar
    15    10    12   ar
    16    10    16   ar
    17    11    12    1
    18    13    21    1
    19    14    15    1
    20    14    20   ar
    21    15    22   ar
    22    16    20   ar
    23    16    23    1
    24    17    21    1
    25    18    23    1
    26     2    24    1
    27     3    25    1
    28     4    26    1
    29     5    27    1
    30     6    28    1
    31     7    29    1
    32     8    30    1
    33     9    31    1
    34    17    32    1
    35    17    33    1
    36    17    34    1
    37    18    35    1
    38    18    36    1
    39    18    37    1
