@<TRIPOS>MOLECULE
AN-329/05740035
 44 47 0 0 0
SMALL
USER_CHARGES

@<TRIPOS>ATOM
      1 C           7.8075    1.4361   -0.0641 C.ar    1  LIG1       -0.1031
      2 C           7.1334    2.0824   -1.1002 C.ar    1  LIG1       -0.0992
      3 C           7.0888    0.8632    0.9851 C.ar    1  LIG1       -0.0962
      4 C           5.7405    2.1560   -1.0870 C.ar    1  LIG1       -0.0787
      5 C           5.6959    0.9366    0.9983 C.ar    1  LIG1       -0.0734
      6 C           0.5006    4.7963   -1.1862 C.ar    1  LIG1       -0.0776
      7 C           0.5224    4.7813    1.2297 C.ar    1  LIG1       -0.0866
      8 C          -0.1802    6.0135   -1.1725 C.ar    1  LIG1       -0.0530
      9 C          -0.1585    5.9987    1.2434 C.ar    1  LIG1       -0.0654
     10 C           2.9478    2.8909   -0.0115 C.ar    1  LIG1       -0.0242
     11 C           0.8524    1.6987   -0.0004 C.ar    1  LIG1        0.0137
     12 C           0.8518    4.1801    0.0150 C.ar    1  LIG1       -0.0649
     13 C           5.0217    1.5831   -0.0378 C.ar    1  LIG1       -0.0292
     14 C           1.5569    2.9198    0.0009 C.ar    1  LIG1       -0.0426
     15 C          -0.5456    1.3897    0.0097 C.ar    1  LIG1       -0.0379
     16 C          -0.5098    6.6148    0.0423 C.ar    1  LIG1       -0.0118
     17 C           3.5781    1.6593   -0.0246 C.ar    1  LIG1        0.0032
     18 C          -0.7879    0.0337    0.0035 C.ar    1  LIG1        0.0999
     19 C           1.6147    0.5353   -0.0143 C.ar    1  LIG1        0.0546
     20 C          -2.0334   -0.6669    0.0099 C.2     1  LIG1        0.0901
     21 C          -1.5013    8.3775   -1.2088 C.3     1  LIG1        0.0252
     22 N           2.9620    0.4578   -0.0267 N.ar    1  LIG1       -0.3504
     23 N          -1.5422    2.3100    0.0238 N.pl3   1  LIG1       -0.3971
     24 N          -2.0160   -2.0706    0.0011 N.am    1  LIG1       -0.3425
     25 O          -3.1407   -0.0722    0.0065 O.2     1  LIG1       -0.4917
     26 O          -1.1735    7.8028    0.0553 O.3     1  LIG1       -0.4156
     27 S           0.6591   -0.8770   -0.0147 S.2     1  LIG1       -0.0476
     28 H           8.8919    1.3775   -0.0755 H       1  LIG1        0.1216
     29 H           7.6928    2.5272   -1.9179 H       1  LIG1        0.1197
     30 H           7.6129    0.3585    1.7914 H       1  LIG1        0.1199
     31 H           5.2296    2.6631   -1.9022 H       1  LIG1        0.1291
     32 H           5.1490    0.4848    1.8225 H       1  LIG1        0.1406
     33 H           0.7505    4.3401   -2.1411 H       1  LIG1        0.1420
     34 H           0.7893    4.3137    2.1744 H       1  LIG1        0.1369
     35 H          -0.4510    6.4889   -2.1114 H       1  LIG1        0.1334
     36 H          -0.4124    6.4625    2.1926 H       1  LIG1        0.1162
     37 H           3.5226    3.8134   -0.0109 H       1  LIG1        0.1460
     38 H          -2.0284    9.3224   -1.0547 H       1  LIG1        0.0904
     39 H          -2.1308    7.6847   -1.7729 H       1  LIG1        0.0907
     40 H          -0.5792    8.5638   -1.7645 H       1  LIG1        0.1235
     41 H          -1.3485    3.3175    0.0761 H       1  LIG1        0.2657
     42 H          -2.5310    2.0366    0.0782 H       1  LIG1        0.2758
     43 H          -1.1213   -2.5482   -0.0095 H       1  LIG1        0.2783
     44 H          -2.8663   -2.6246    0.0050 H       1  LIG1        0.2726
@<TRIPOS>BOND
     1     1     2   ar
     2     1     3   ar
     3     2     4   ar
     4     3     5   ar
     5     4    13   ar
     6     5    13   ar
     7     6     8   ar
     8     6    12   ar
     9     7     9   ar
    10     7    12   ar
    11     8    16   ar
    12     9    16   ar
    13    10    14   ar
    14    10    17   ar
    15    11    14   ar
    16    11    15   ar
    17    11    19   ar
    18    12    14    1
    19    13    17    1
    20    15    18   ar
    21    15    23    1
    22    16    26    1
    23    17    22   ar
    24    18    20    1
    25    18    27   ar
    26    19    22   ar
    27    19    27   ar
    28    20    24   am
    29    20    25    2
    30    21    26    1
    31     1    28    1
    32     2    29    1
    33     3    30    1
    34     4    31    1
    35     5    32    1
    36     6    33    1
    37     7    34    1
    38     8    35    1
    39     9    36    1
    40    10    37    1
    41    21    38    1
    42    21    39    1
    43    21    40    1
    44    23    41    1
    45    23    42    1
    46    24    43    1
    47    24    44    1
