@<TRIPOS>MOLECULE
AG-205/32366038
 48 50 0 0 0
SMALL
USER_CHARGES

@<TRIPOS>ATOM
      1 C           1.3625    5.3245    0.6206 C.ar    1  LIG1       -0.0784
      2 C          -0.5354    4.4246   -0.5732 C.ar    1  LIG1       -0.0882
      3 C           5.4710    1.8861   -1.0866 C.ar    1  LIG1       -0.0742
      4 C           5.3316    0.6772    1.0006 C.ar    1  LIG1       -0.0708
      5 C           0.7585    6.5817    0.6330 C.ar    1  LIG1       -0.0545
      6 C          -1.1394    5.6817   -0.5608 C.ar    1  LIG1       -0.0673
      7 C           6.8537    1.7029   -1.1004 C.ar    1  LIG1       -0.0642
      8 C           6.7144    0.4940    0.9868 C.ar    1  LIG1       -0.0548
      9 C           2.7278    2.8339   -0.0097 C.ar    1  LIG1       -0.0461
     10 C           0.5601    1.7920    0.0063 C.ar    1  LIG1       -0.0590
     11 C           0.7156    4.2459    0.0174 C.ar    1  LIG1       -0.0727
     12 C           4.7099    1.3733   -0.0360 C.ar    1  LIG1       -0.0370
     13 C           1.3417    2.9421    0.0046 C.ar    1  LIG1       -0.0698
     14 C          -0.4924    6.7604    0.0423 C.ar    1  LIG1       -0.0123
     15 C           7.4754    1.0068   -0.0637 C.ar    1  LIG1       -0.0129
     16 C           3.2790    1.5627   -0.0217 C.ar    1  LIG1       -0.0219
     17 C           1.2084    0.5675   -0.0066 C.ar    1  LIG1       -0.0536
     18 C           0.4014   -0.6880   -0.0034 C.3     1  LIG1       -0.0079
     19 C          -2.9634    9.2617    0.8098 C.3     1  LIG1       -0.0345
     20 C          10.5984   -0.7788   -0.1599 C.3     1  LIG1       -0.0347
     21 C          -2.5081    8.0221    0.0695 C.3     1  LIG1        0.0140
     22 C           9.3294   -0.3519    0.5465 C.3     1  LIG1        0.0139
     23 N           2.5525    0.4226   -0.0205 N.ar    1  LIG1       -0.3925
     24 O          -1.0818    7.9870    0.0552 O.3     1  LIG1       -0.4170
     25 O           8.8243    0.8277   -0.0776 O.3     1  LIG1       -0.4173
     26 H           2.3378    5.2010    1.0851 H       1  LIG1        0.1395
     27 H          -1.0525    3.5936   -1.0473 H       1  LIG1        0.1331
     28 H           5.0010    2.4308   -1.9018 H       1  LIG1        0.1466
     29 H           4.7523    0.2713    1.8264 H       1  LIG1        0.1385
     30 H           1.2673    7.4181    1.1046 H       1  LIG1        0.1307
     31 H          -2.1141    5.8150   -1.0223 H       1  LIG1        0.1137
     32 H           7.4412    2.1045   -1.9215 H       1  LIG1        0.1124
     33 H           7.1932   -0.0493    1.7969 H       1  LIG1        0.1292
     34 H           3.3592    3.7182   -0.0105 H       1  LIG1        0.1310
     35 H          -0.5247    1.8467    0.0175 H       1  LIG1        0.1274
     36 H           0.1841   -1.0036   -1.0307 H       1  LIG1        0.0755
     37 H           0.9336   -1.5012    0.5061 H       1  LIG1        0.0745
     38 H          -0.5491   -0.5479    0.5271 H       1  LIG1        0.0729
     39 H          -2.6042    9.2534    1.8425 H       1  LIG1        0.0575
     40 H          -2.5934   10.1651    0.3139 H       1  LIG1        0.0483
     41 H          -4.0565    9.3274    0.8165 H       1  LIG1        0.0483
     42 H          10.4038   -0.9976   -1.2135 H       1  LIG1        0.0481
     43 H          11.3585    0.0067   -0.0966 H       1  LIG1        0.0481
     44 H          11.0223   -1.6706    0.3136 H       1  LIG1        0.0572
     45 H          -2.8707    8.0366   -0.9627 H       1  LIG1        0.0953
     46 H          -2.8780    7.1204    0.5667 H       1  LIG1        0.0953
     47 H           9.5310   -0.1346    1.5997 H       1  LIG1        0.0952
     48 H           8.5708   -1.1375    0.4815 H       1  LIG1        0.0952
@<TRIPOS>BOND
     1     1     5   ar
     2     1    11   ar
     3     2     6   ar
     4     2    11   ar
     5     3     7   ar
     6     3    12   ar
     7     4     8   ar
     8     4    12   ar
     9     5    14   ar
    10     6    14   ar
    11     7    15   ar
    12     8    15   ar
    13     9    13   ar
    14     9    16   ar
    15    10    13   ar
    16    10    17   ar
    17    11    13    1
    18    12    16    1
    19    14    24    1
    20    15    25    1
    21    16    23   ar
    22    17    18    1
    23    17    23   ar
    24    19    21    1
    25    20    22    1
    26    21    24    1
    27    22    25    1
    28     1    26    1
    29     2    27    1
    30     3    28    1
    31     4    29    1
    32     5    30    1
    33     6    31    1
    34     7    32    1
    35     8    33    1
    36     9    34    1
    37    10    35    1
    38    18    36    1
    39    18    37    1
    40    18    38    1
    41    19    39    1
    42    19    40    1
    43    19    41    1
    44    20    42    1
    45    20    43    1
    46    20    44    1
    47    21    45    1
    48    21    46    1
    49    22    47    1
    50    22    48    1
