@<TRIPOS>MOLECULE
AO-365/43113660
 34 37 0 0 0
SMALL
USER_CHARGES

@<TRIPOS>ATOM
      1 C           0.5010    6.4635    1.0789 C.ar    1  LIG1       -0.0786
      2 C           0.5900    5.0716    1.0694 C.ar    1  LIG1       -0.0544
      3 C           5.3491    0.1893    0.3627 C.ar    1  LIG1       -0.0541
      4 C           5.4868    2.4603   -0.4496 C.ar    1  LIG1       -0.0604
      5 C           6.7410    0.1002    0.3497 C.ar    1  LIG1       -0.0408
      6 C           6.8788    2.3713   -0.4627 C.ar    1  LIG1       -0.0522
      7 C          -0.1550    7.1275    0.0423 C.ar    1  LIG1       -0.0668
      8 C          -0.6328    5.0075   -1.0133 C.ar    1  LIG1       -0.0360
      9 C           0.0231    4.3435    0.0234 C.ar    1  LIG1        0.0161
     10 C           4.7219    1.3693   -0.0371 C.ar    1  LIG1        0.0056
     11 C           7.5059    1.1912   -0.0630 C.ar    1  LIG1       -0.0019
     12 C          -0.7219    6.3995   -1.0039 C.ar    1  LIG1       -0.0049
     13 C           0.1157    2.9037    0.0134 C.ar    1  LIG1        0.1124
     14 C           0.9372    0.9107   -0.0063 C.ar    1  LIG1        0.1546
     15 C           3.2790    1.4620   -0.0235 C.ar    1  LIG1        0.1235
     16 C           9.4399   -0.1313    0.3450 C.3     1  LIG1        0.0279
     17 N          -0.8878    2.0417    0.0164 N.ar    1  LIG1       -0.2278
     18 N          -0.3548    0.7521    0.0037 N.ar    1  LIG1       -0.2352
     19 N           2.5841    2.5722   -0.0099 N.ar    1  LIG1       -0.2766
     20 N           1.2837    2.2136   -0.0010 N.ar    1  LIG1       -0.2244
     21 O           8.8641    1.1045   -0.0759 O.3     1  LIG1       -0.4103
     22 S           2.3346   -0.0650   -0.0243 S.2     1  LIG1        0.0521
     23 CL         -1.5298    7.2203   -2.2826 Cl      1  LIG1       -0.1387
     24 H           0.9418    7.0307    1.8936 H       1  LIG1        0.1393
     25 H           1.1041    4.5684    1.8850 H       1  LIG1        0.1524
     26 H           4.7635   -0.6673    0.6865 H       1  LIG1        0.1535
     27 H           5.0078    3.3845   -0.7628 H       1  LIG1        0.1555
     28 H           7.2236   -0.8219    0.6621 H       1  LIG1        0.1433
     29 H           7.4693    3.2244   -0.7855 H       1  LIG1        0.1244
     30 H          -0.2170    8.2126    0.0628 H       1  LIG1        0.1418
     31 H          -1.0752    4.4405   -1.8302 H       1  LIG1        0.1499
     32 H          10.5291   -0.0652    0.2864 H       1  LIG1        0.0927
     33 H           9.0782   -0.9397   -0.2955 H       1  LIG1        0.0927
     34 H           9.1441   -0.3276    1.3782 H       1  LIG1        0.1255
@<TRIPOS>BOND
     1     1     2   ar
     2     1     7   ar
     3     2     9   ar
     4     3     5   ar
     5     3    10   ar
     6     4     6   ar
     7     4    10   ar
     8     5    11   ar
     9     6    11   ar
    10     7    12   ar
    11     8     9   ar
    12     8    12   ar
    13     9    13    1
    14    10    15    1
    15    11    21    1
    16    12    23    1
    17    13    17   ar
    18    13    20   ar
    19    14    18   ar
    20    14    20   ar
    21    14    22   ar
    22    15    19   ar
    23    15    22   ar
    24    16    21    1
    25    17    18   ar
    26    19    20   ar
    27     1    24    1
    28     2    25    1
    29     3    26    1
    30     4    27    1
    31     5    28    1
    32     6    29    1
    33     7    30    1
    34     8    31    1
    35    16    32    1
    36    16    33    1
    37    16    34    1
