@<TRIPOS>MOLECULE
AP-501/43237251
 37 40 0 0 0
SMALL
USER_CHARGES

@<TRIPOS>ATOM
      1 C          -0.7234    6.3987   -1.0040 C.ar    1  LIG1       -0.0941
      2 C          -0.6324    5.0069   -1.0137 C.ar    1  LIG1       -0.0678
      3 C           5.3493    0.1889    0.3629 C.ar    1  LIG1       -0.0606
      4 C           5.4874    2.4599   -0.4499 C.ar    1  LIG1       -0.0542
      5 C          -0.1579    7.1274    0.0425 C.ar    1  LIG1       -0.0985
      6 C           6.7412    0.0996    0.3499 C.ar    1  LIG1       -0.0526
      7 C           6.8793    2.3706   -0.4628 C.ar    1  LIG1       -0.0410
      8 C           0.5895    5.0722    1.0696 C.ar    1  LIG1       -0.0618
      9 C           0.0240    4.3436    0.0231 C.ar    1  LIG1        0.0071
     10 C           4.7224    1.3690   -0.0370 C.ar    1  LIG1        0.0052
     11 C           0.4985    6.4641    1.0793 C.ar    1  LIG1       -0.1041
     12 C           7.5063    1.1904   -0.0630 C.ar    1  LIG1       -0.0023
     13 C           0.1163    2.9041    0.0134 C.ar    1  LIG1        0.1096
     14 C           0.9375    0.9110   -0.0061 C.ar    1  LIG1        0.1523
     15 C           3.2795    1.4619   -0.0235 C.ar    1  LIG1        0.1224
     16 C           1.1013    7.2434    2.1989 C.3     1  LIG1       -0.0406
     17 C           9.4402   -0.1322    0.3451 C.3     1  LIG1        0.0278
     18 N          -0.8872    2.0423    0.0164 N.ar    1  LIG1       -0.2303
     19 N          -0.3544    0.7525    0.0039 N.ar    1  LIG1       -0.2377
     20 N           2.5847    2.5723   -0.0100 N.ar    1  LIG1       -0.2764
     21 N           1.2843    2.2138   -0.0010 N.ar    1  LIG1       -0.2248
     22 O           8.8645    1.1036   -0.0760 O.3     1  LIG1       -0.4106
     23 S           2.3348   -0.0649   -0.0241 S.2     1  LIG1        0.0491
     24 H          -1.2338    6.9157   -1.8112 H       1  LIG1        0.1233
     25 H          -1.0780    4.4535   -1.8369 H       1  LIG1        0.1326
     26 H           4.7636   -0.6675    0.6868 H       1  LIG1        0.1552
     27 H           5.0085    3.3841   -0.7631 H       1  LIG1        0.1534
     28 H          -0.2336    8.2113    0.0418 H       1  LIG1        0.1260
     29 H           7.2238   -0.8225    0.6623 H       1  LIG1        0.1241
     30 H           7.4701    3.2236   -0.7858 H       1  LIG1        0.1431
     31 H           1.1023    4.5608    1.8819 H       1  LIG1        0.1448
     32 H           0.3709    7.3803    3.0057 H       1  LIG1        0.0587
     33 H           1.9824    6.7339    2.6100 H       1  LIG1        0.0566
     34 H           1.4358    8.2329    1.8606 H       1  LIG1        0.0559
     35 H          10.5293   -0.0664    0.2864 H       1  LIG1        0.1253
     36 H           9.0784   -0.9407   -0.2952 H       1  LIG1        0.0926
     37 H           9.1444   -0.3284    1.3783 H       1  LIG1        0.0926
@<TRIPOS>BOND
     1     1     2   ar
     2     1     5   ar
     3     2     9   ar
     4     3     6   ar
     5     3    10   ar
     6     4     7   ar
     7     4    10   ar
     8     5    11   ar
     9     6    12   ar
    10     7    12   ar
    11     8     9   ar
    12     8    11   ar
    13     9    13    1
    14    10    15    1
    15    11    16    1
    16    12    22    1
    17    13    18   ar
    18    13    21   ar
    19    14    19   ar
    20    14    21   ar
    21    14    23   ar
    22    15    20   ar
    23    15    23   ar
    24    17    22    1
    25    18    19   ar
    26    20    21   ar
    27     1    24    1
    28     2    25    1
    29     3    26    1
    30     4    27    1
    31     5    28    1
    32     6    29    1
    33     7    30    1
    34     8    31    1
    35    16    32    1
    36    16    33    1
    37    16    34    1
    38    17    35    1
    39    17    36    1
    40    17    37    1
