@<TRIPOS>MOLECULE
AE-848/34435008
 44 46 0 0 0
SMALL
USER_CHARGES

@<TRIPOS>ATOM
      1 C          -0.8924    1.8365    0.0162 C.1     1  LIG1        0.0752
      2 C           0.9808    5.1098    1.0665 C.ar    1  LIG1       -0.0857
      3 C          -0.1361    4.6214   -1.0194 C.ar    1  LIG1       -0.0748
      4 C           5.3995    1.2896    1.1656 C.ar    1  LIG1       -0.0672
      5 C           5.3749    1.3022   -1.2503 C.ar    1  LIG1       -0.0728
      6 C           0.4031    6.3793    1.0787 C.ar    1  LIG1       -0.0648
      7 C          -0.7139    5.8910   -1.0072 C.ar    1  LIG1       -0.0519
      8 C           6.7839    1.1203    1.1506 C.ar    1  LIG1       -0.0521
      9 C           6.7594    1.1330   -1.2652 C.ar    1  LIG1       -0.0627
     10 C           2.6975    2.8208   -0.0074 C.ar    1  LIG1       -0.0205
     11 C           0.5410    1.7561    0.0043 C.ar    1  LIG1        0.1144
     12 C           0.7113    4.2309    0.0174 C.ar    1  LIG1       -0.0574
     13 C           4.6949    1.3804   -0.0348 C.ar    1  LIG1       -0.0296
     14 C           1.3103    2.9144    0.0047 C.ar    1  LIG1       -0.0113
     15 C          -0.4443    6.7699    0.0419 C.ar    1  LIG1       -0.0110
     16 C           7.4639    1.0420   -0.0648 C.ar    1  LIG1       -0.0119
     17 C           3.2622    1.5557   -0.0196 C.ar    1  LIG1       -0.0069
     18 C           1.2022    0.5385   -0.0086 C.ar    1  LIG1        0.0524
     19 C          -1.8648    8.3429   -1.0368 C.3     1  LIG1        0.0249
     20 C           9.4722    0.7926    1.1845 C.3     1  LIG1        0.0249
     21 C          -0.6115   -0.8243   -1.5469 C.3     1  LIG1        0.0086
     22 N          -2.0510    1.9015    0.0257 N.1     1  LIG1       -0.3623
     23 N           2.5478    0.4079   -0.0205 N.ar    1  LIG1       -0.3635
     24 O          -1.0084    8.0083    0.0543 O.3     1  LIG1       -0.4158
     25 O           8.8147    0.8775   -0.0791 O.3     1  LIG1       -0.4158
     26 S           0.3179   -1.0204   -0.0126 S.3     1  LIG1       -0.1312
     27 H           1.6392    4.8199    1.8819 H       1  LIG1        0.1320
     28 H          -0.3562    3.9478   -1.8441 H       1  LIG1        0.1441
     29 H           4.8836    1.3488    2.1210 H       1  LIG1        0.1448
     30 H           4.8400    1.3714   -2.1945 H       1  LIG1        0.1469
     31 H           0.6167    7.0595    1.8987 H       1  LIG1        0.1163
     32 H          -1.3734    6.1898   -1.8175 H       1  LIG1        0.1338
     33 H           7.3273    1.0503    2.0890 H       1  LIG1        0.1322
     34 H           7.2838    1.0729   -2.2150 H       1  LIG1        0.1142
     35 H           3.3213    3.7105   -0.0077 H       1  LIG1        0.1488
     36 H          -2.2473    9.3577   -0.9028 H       1  LIG1        0.0903
     37 H          -2.6940    7.6325   -1.0814 H       1  LIG1        0.0901
     38 H          -1.2929    8.2913   -1.9663 H       1  LIG1        0.1232
     39 H          10.5459    0.6625    1.0294 H       1  LIG1        0.0903
     40 H           9.0698   -0.0519    1.7495 H       1  LIG1        0.1228
     41 H           9.2960    1.7171    1.7396 H       1  LIG1        0.0903
     42 H          -1.2302   -1.7078   -1.7223 H       1  LIG1        0.0915
     43 H           0.0783   -0.7001   -2.3854 H       1  LIG1        0.0786
     44 H          -1.2558    0.0558   -1.4806 H       1  LIG1        0.0787
@<TRIPOS>BOND
     1     1    11    1
     2     1    22    3
     3     2     6   ar
     4     2    12   ar
     5     3     7   ar
     6     3    12   ar
     7     4     8   ar
     8     4    13   ar
     9     5     9   ar
    10     5    13   ar
    11     6    15   ar
    12     7    15   ar
    13     8    16   ar
    14     9    16   ar
    15    10    14   ar
    16    10    17   ar
    17    11    14   ar
    18    11    18   ar
    19    12    14    1
    20    13    17    1
    21    15    24    1
    22    16    25    1
    23    17    23   ar
    24    18    23   ar
    25    18    26    1
    26    19    24    1
    27    20    25    1
    28    21    26    1
    29     2    27    1
    30     3    28    1
    31     4    29    1
    32     5    30    1
    33     6    31    1
    34     7    32    1
    35     8    33    1
    36     9    34    1
    37    10    35    1
    38    19    36    1
    39    19    37    1
    40    19    38    1
    41    20    39    1
    42    20    40    1
    43    20    41    1
    44    21    42    1
    45    21    43    1
    46    21    44    1
