@<TRIPOS>MOLECULE
AP-501/42284036
 38 41 0 0 0
SMALL
USER_CHARGES

@<TRIPOS>ATOM
      1 C          -1.1708    6.4036   -0.5641 C.ar    1  LIG1       -0.0942
      2 C          -0.1646    7.1613    0.0350 C.ar    1  LIG1       -0.0985
      3 C          -1.0880    5.0111   -0.5660 C.ar    1  LIG1       -0.0580
      4 C           5.2514    0.1250    0.3742 C.ar    1  LIG1       -0.0543
      5 C           5.4315    2.3949   -0.4333 C.ar    1  LIG1       -0.0608
      6 C           0.9244    6.5266    0.6323 C.ar    1  LIG1       -0.0578
      7 C           6.6415    0.0110    0.3641 C.ar    1  LIG1       -0.0414
      8 C           6.8217    2.2810   -0.4433 C.ar    1  LIG1       -0.0530
      9 C           0.0011    4.3764    0.0312 C.ar    1  LIG1        0.0510
     10 C           4.6463    1.3169   -0.0246 C.ar    1  LIG1        0.0047
     11 C           7.4267    1.0891   -0.0446 C.ar    1  LIG1       -0.0027
     12 C           1.0074    5.1342    0.6304 C.ar    1  LIG1        0.0300
     13 C           0.0680    2.9332    0.0184 C.ar    1  LIG1        0.1194
     14 C           0.8538    0.9259   -0.0034 C.ar    1  LIG1        0.1506
     15 C           3.2053    1.4352   -0.0142 C.ar    1  LIG1        0.1207
     16 C           9.3359   -0.2685    0.3651 C.3     1  LIG1        0.0276
     17 C           3.0575    5.4017    1.8055 C.3     1  LIG1        0.0317
     18 N          -0.9506    2.0892    0.0174 N.ar    1  LIG1       -0.2225
     19 N          -0.4407    0.7902    0.0033 N.ar    1  LIG1       -0.2352
     20 N           2.5302    2.5576    0.0000 N.ar    1  LIG1       -0.2782
     21 N           1.2237    2.2223    0.0053 N.ar    1  LIG1       -0.2256
     22 O           8.7831    0.9782   -0.0546 O.3     1  LIG1       -0.4109
     23 O           2.0836    4.5403    1.2210 O.3     1  LIG1       -0.3982
     24 S           2.2337   -0.0746   -0.0204 S.2     1  LIG1        0.0463
     25 H          -2.0185    6.8979   -1.0301 H       1  LIG1        0.1169
     26 H          -0.2295    8.2455    0.0369 H       1  LIG1        0.1336
     27 H          -1.8813    4.4359   -1.0369 H       1  LIG1        0.1477
     28 H           4.6498   -0.7216    0.6949 H       1  LIG1        0.1532
     29 H           4.9698    3.3281   -0.7457 H       1  LIG1        0.1549
     30 H           1.7045    7.1229    1.0975 H       1  LIG1        0.1194
     31 H           7.1069   -0.9200    0.6757 H       1  LIG1        0.1426
     32 H           7.4282    3.1240   -0.7630 H       1  LIG1        0.1237
     33 H          10.4262   -0.2218    0.3091 H       1  LIG1        0.0925
     34 H           8.9614   -1.0690   -0.2779 H       1  LIG1        0.0925
     35 H           9.0343   -0.4616    1.3972 H       1  LIG1        0.1251
     36 H           3.8609    4.8023    2.2408 H       1  LIG1        0.0909
     37 H           2.5864    6.0149    2.5779 H       1  LIG1        0.0909
     38 H           3.4698    6.0506    1.0291 H       1  LIG1        0.1256
@<TRIPOS>BOND
     1     1     2   ar
     2     1     3   ar
     3     2     6   ar
     4     3     9   ar
     5     4     7   ar
     6     4    10   ar
     7     5     8   ar
     8     5    10   ar
     9     6    12   ar
    10     7    11   ar
    11     8    11   ar
    12     9    12   ar
    13     9    13    1
    14    10    15    1
    15    11    22    1
    16    12    23    1
    17    13    18   ar
    18    13    21   ar
    19    14    19   ar
    20    14    21   ar
    21    14    24   ar
    22    15    20   ar
    23    15    24   ar
    24    16    22    1
    25    17    23    1
    26    18    19   ar
    27    20    21   ar
    28     1    25    1
    29     2    26    1
    30     3    27    1
    31     4    28    1
    32     5    29    1
    33     6    30    1
    34     7    31    1
    35     8    32    1
    36    16    33    1
    37    16    34    1
    38    16    35    1
    39    17    36    1
    40    17    37    1
    41    17    38    1
