@<TRIPOS>MOLECULE
AS-980/15246972
 40 43 0 0 0
SMALL
USER_CHARGES

@<TRIPOS>ATOM
      1 C          -0.6483    6.9210    0.0442 C.ar    1  LIG1       -0.1026
      2 C           7.4049    1.1275   -0.0630 C.ar    1  LIG1       -0.1012
      3 C          -0.2619    6.3272    1.2457 C.ar    1  LIG1       -0.0975
      4 C          -0.2831    6.3398   -1.1702 C.ar    1  LIG1       -0.0965
      5 C           6.4827    0.2754    0.5446 C.ar    1  LIG1       -0.0923
      6 C           6.9730    2.3139   -0.6559 C.ar    1  LIG1       -0.0911
      7 C           0.4898    5.1522    1.2329 C.ar    1  LIG1       -0.0750
      8 C           0.4686    5.1649   -1.1829 C.ar    1  LIG1       -0.0739
      9 C           5.1286    0.6099    0.5594 C.ar    1  LIG1       -0.0531
     10 C           5.6189    2.6483   -0.6411 C.ar    1  LIG1       -0.0516
     11 C          -0.0714   -0.0172    0.0022 C.ar    1  LIG1       -0.0579
     12 C           1.1490    2.0335    0.0022 C.ar    1  LIG1        0.0231
     13 C           0.8551    4.5711    0.0186 C.ar    1  LIG1       -0.0265
     14 C          -0.0883    1.3776    0.0102 C.ar    1  LIG1       -0.0798
     15 C           4.6967    1.7963   -0.0335 C.ar    1  LIG1        0.0022
     16 C           1.6318    3.3573    0.0051 C.ar    1  LIG1        0.0402
     17 C           1.1538   -0.6753   -0.0132 C.ar    1  LIG1       -0.0415
     18 C           2.2963    1.2557   -0.0131 C.ar    1  LIG1        0.0521
     19 C          -1.4015    2.0879    0.0265 C.3     1  LIG1       -0.0261
     20 C           1.1557   -2.1707   -0.0210 C.3     1  LIG1        0.0007
     21 N           2.9673    3.4218   -0.0074 N.ar    1  LIG1       -0.2832
     22 N           2.3743   -0.0864   -0.0215 N.ar    1  LIG1       -0.3615
     23 N           3.3428    2.1300   -0.0181 N.ar    1  LIG1       -0.2499
     24 H          -1.2344    7.8352    0.0540 H       1  LIG1        0.1215
     25 H           8.4595    0.8684   -0.0733 H       1  LIG1        0.1197
     26 H          -0.5471    6.7787    2.1913 H       1  LIG1        0.1212
     27 H          -0.5852    6.8017   -2.1054 H       1  LIG1        0.1211
     28 H           6.8189   -0.6477    1.0075 H       1  LIG1        0.1262
     29 H           7.6919    2.9776   -1.1278 H       1  LIG1        0.1275
     30 H           0.7834    4.7013    2.1781 H       1  LIG1        0.1315
     31 H           0.7452    4.7243   -2.1380 H       1  LIG1        0.1311
     32 H           4.4204   -0.0626    1.0372 H       1  LIG1        0.1346
     33 H           5.2959    3.5765   -1.1063 H       1  LIG1        0.1373
     34 H          -1.0011   -0.5795    0.0067 H       1  LIG1        0.1278
     35 H          -1.7265    2.2629    1.0588 H       1  LIG1        0.0704
     36 H          -1.3361    3.0547   -0.4878 H       1  LIG1        0.0644
     37 H          -2.1746    1.5042   -0.4890 H       1  LIG1        0.0677
     38 H           1.1461   -2.5431   -1.0511 H       1  LIG1        0.0819
     39 H           2.0424   -2.5667    0.4875 H       1  LIG1        0.0799
     40 H           0.2797   -2.5688    0.5047 H       1  LIG1        0.0790
@<TRIPOS>BOND
     1     1     3   ar
     2     1     4   ar
     3     2     5   ar
     4     2     6   ar
     5     3     7   ar
     6     4     8   ar
     7     5     9   ar
     8     6    10   ar
     9     7    13   ar
    10     8    13   ar
    11     9    15   ar
    12    10    15   ar
    13    11    14   ar
    14    11    17   ar
    15    12    14   ar
    16    12    16   ar
    17    12    18   ar
    18    13    16    1
    19    14    19    1
    20    15    23    1
    21    16    21   ar
    22    17    20    1
    23    17    22   ar
    24    18    22   ar
    25    18    23   ar
    26    21    23   ar
    27     1    24    1
    28     2    25    1
    29     3    26    1
    30     4    27    1
    31     5    28    1
    32     6    29    1
    33     7    30    1
    34     8    31    1
    35     9    32    1
    36    10    33    1
    37    11    34    1
    38    19    35    1
    39    19    36    1
    40    19    37    1
    41    20    38    1
    42    20    39    1
    43    20    40    1
