@<TRIPOS>MOLECULE
AM-807/14956055
 38 41 0 0 0
SMALL
USER_CHARGES

@<TRIPOS>ATOM
      1 C          -1.9637   -0.6115    0.0028 C.1     1  LIG1        0.0774
      2 C           7.3388    2.1318   -0.4365 C.ar    1  LIG1       -0.1016
      3 C           0.5210    4.8164   -1.1891 C.ar    1  LIG1       -0.0866
      4 C           0.5565    4.7932    1.2265 C.ar    1  LIG1       -0.0770
      5 C          -0.1775    6.0234   -1.1673 C.ar    1  LIG1       -0.0653
      6 C          -0.1421    6.0005    1.2483 C.ar    1  LIG1       -0.0530
      7 C           5.9901    2.5543   -0.6171 C.ar    1  LIG1       -0.0819
      8 C           3.0024    2.9442   -0.0349 C.ar    1  LIG1       -0.0169
      9 C           7.4196    0.9315    0.2346 C.ar    1  LIG1       -0.0430
     10 C          -0.6883    0.0292   -0.0095 C.ar    1  LIG1        0.1460
     11 C           0.9258    1.7196   -0.0164 C.ar    1  LIG1        0.0188
     12 C           0.8880    4.2012    0.0078 C.ar    1  LIG1       -0.0638
     13 C           1.6113    2.9515   -0.0146 C.ar    1  LIG1       -0.0387
     14 C          -0.4671    1.3889    0.0003 C.ar    1  LIG1       -0.0254
     15 C          -0.5091    6.6155    0.0513 C.ar    1  LIG1       -0.0118
     16 C           3.6517    1.7226   -0.0559 C.ar    1  LIG1        0.0157
     17 C           5.0913    1.6605   -0.0773 C.ar    1  LIG1        0.0169
     18 C           1.7061    0.5682   -0.0387 C.ar    1  LIG1        0.0723
     19 C          -1.5334    8.3679   -1.1880 C.3     1  LIG1        0.0253
     20 N          -3.0007   -1.1324    0.0129 N.1     1  LIG1       -0.3662
     21 N           3.0543    0.5117   -0.0588 N.ar    1  LIG1       -0.3400
     22 N          -1.4718    2.3022    0.0232 N.pl3   1  LIG1       -0.4024
     23 O          -1.1901    7.7936    0.0723 O.3     1  LIG1       -0.4156
     24 S           5.8738    0.3189    0.6438 S.2     1  LIG1       -0.1160
     25 S           0.7725   -0.8588   -0.0389 S.2     1  LIG1       -0.0065
     26 H           8.2058    2.6798   -0.7815 H       1  LIG1        0.1174
     27 H           0.7722    4.3672   -2.1470 H       1  LIG1        0.1374
     28 H           0.8354    4.3263    2.1680 H       1  LIG1        0.1435
     29 H          -0.4605    6.4980   -2.1030 H       1  LIG1        0.1169
     30 H          -0.3975    6.4571    2.2006 H       1  LIG1        0.1326
     31 H           5.7019    3.4690   -1.1204 H       1  LIG1        0.1377
     32 H           3.5633    3.8754   -0.0341 H       1  LIG1        0.1474
     33 H           8.3124    0.3849    0.5036 H       1  LIG1        0.1728
     34 H          -2.0735    9.3042   -1.0275 H       1  LIG1        0.1235
     35 H          -2.1557    7.6678   -1.7510 H       1  LIG1        0.0909
     36 H          -0.6173    8.5696   -1.7480 H       1  LIG1        0.0906
     37 H          -2.4585    2.0212   -0.0131 H       1  LIG1        0.2650
     38 H          -1.2856    3.3110   -0.0176 H       1  LIG1        0.2636
@<TRIPOS>BOND
     1     1    10    1
     2     1    20    3
     3     2     7   ar
     4     2     9   ar
     5     3     5   ar
     6     3    12   ar
     7     4     6   ar
     8     4    12   ar
     9     5    15   ar
    10     6    15   ar
    11     7    17   ar
    12     8    13   ar
    13     8    16   ar
    14     9    24   ar
    15    10    14   ar
    16    10    25   ar
    17    11    13   ar
    18    11    14   ar
    19    11    18   ar
    20    12    13    1
    21    14    22    1
    22    15    23    1
    23    16    17    1
    24    16    21   ar
    25    17    24   ar
    26    18    21   ar
    27    18    25   ar
    28    19    23    1
    29     2    26    1
    30     3    27    1
    31     4    28    1
    32     5    29    1
    33     6    30    1
    34     7    31    1
    35     8    32    1
    36     9    33    1
    37    19    34    1
    38    19    35    1
    39    19    36    1
    40    22    37    1
    41    22    38    1
