@<TRIPOS>MOLECULE
AO-476/43250024
 44 47 0 0 0
SMALL
USER_CHARGES

@<TRIPOS>ATOM
      1 C           5.6676    2.1452   -1.0867 C.ar    1  LIG1       -0.0710
      2 C           5.6545    0.9246    0.9982 C.ar    1  LIG1       -0.0777
      3 C           0.4510    4.6453   -1.1868 C.ar    1  LIG1       -0.0884
      4 C           0.4718    4.6295    1.2290 C.ar    1  LIG1       -0.0753
      5 C           7.0619    2.1086   -1.0994 C.ar    1  LIG1       -0.0943
      6 C           7.0489    0.8879    0.9855 C.ar    1  LIG1       -0.0982
      7 C          -0.1957    5.8810   -1.1732 C.ar    1  LIG1       -0.0672
      8 C          -0.1750    5.8652    1.2427 C.ar    1  LIG1       -0.0519
      9 C           2.8413    2.7910   -0.0110 C.ar    1  LIG1       -0.0246
     10 C          -0.3723   -0.9018   -0.0087 C.ar    1  LIG1        0.0443
     11 C           0.8186    1.4841   -0.0023 C.ar    1  LIG1        0.0622
     12 C           0.7849    4.0195    0.0144 C.ar    1  LIG1       -0.0651
     13 C           4.9639    1.5533   -0.0379 C.ar    1  LIG1       -0.0260
     14 C           1.4588    2.7321    0.0003 C.ar    1  LIG1       -0.0365
     15 C           7.7526    1.4800   -0.0634 C.ar    1  LIG1       -0.1150
     16 C          -0.5087    6.4910    0.0415 C.ar    1  LIG1       -0.0129
     17 C           3.5207    1.5914   -0.0247 C.ar    1  LIG1        0.0091
     18 C           1.5818    0.3108   -0.0170 C.ar    1  LIG1        0.0556
     19 C          -0.5669    1.3435    0.0089 C.ar    1  LIG1        0.0064
     20 C           9.2433    1.4409   -0.0769 C.3     1  LIG1       -0.0415
     21 C          -1.4508    8.2807   -1.2096 C.3     1  LIG1        0.0253
     22 N           0.9771   -0.8824   -0.0202 N.ar    1  LIG1       -0.3288
     23 N          -1.1953    0.1561    0.0062 N.ar    1  LIG1       -0.3425
     24 N           2.9202    0.3768   -0.0279 N.ar    1  LIG1       -0.3300
     25 N          -1.4285    2.4622    0.0238 N.pl3   1  LIG1       -0.3666
     26 O          -1.1393    7.6969    0.0546 O.3     1  LIG1       -0.4156
     27 H           5.1437    2.6397   -1.9013 H       1  LIG1        0.1446
     28 H           5.1202    0.4580    1.8224 H       1  LIG1        0.1302
     29 H           0.6885    4.1824   -2.1417 H       1  LIG1        0.1359
     30 H           0.7254    4.1545    2.1738 H       1  LIG1        0.1455
     31 H           7.6020    2.5734   -1.9200 H       1  LIG1        0.1205
     32 H           7.5788    0.3954    1.7965 H       1  LIG1        0.1195
     33 H          -0.4530    6.3637   -2.1121 H       1  LIG1        0.1149
     34 H          -0.4161    6.3359    2.1920 H       1  LIG1        0.1315
     35 H           3.3748    3.7374   -0.0098 H       1  LIG1        0.1435
     36 H          -0.8387   -1.8794   -0.0104 H       1  LIG1        0.3074
     37 H           9.6531    2.3178    0.4393 H       1  LIG1        0.0589
     38 H           9.6228    0.5374    0.4177 H       1  LIG1        0.0548
     39 H           9.6323    1.4282   -1.1034 H       1  LIG1        0.0552
     40 H          -1.9515    9.2397   -1.0555 H       1  LIG1        0.1234
     41 H          -2.0990    7.6056   -1.7739 H       1  LIG1        0.0907
     42 H          -0.5237    8.4414   -1.7651 H       1  LIG1        0.0906
     43 H          -1.0343    3.3789    0.0741 H       1  LIG1        0.2821
     44 H          -2.4152    2.3150    0.0791 H       1  LIG1        0.2769
@<TRIPOS>BOND
     1     1     5   ar
     2     1    13   ar
     3     2     6   ar
     4     2    13   ar
     5     3     7   ar
     6     3    12   ar
     7     4     8   ar
     8     4    12   ar
     9     5    15   ar
    10     6    15   ar
    11     7    16   ar
    12     8    16   ar
    13     9    14   ar
    14     9    17   ar
    15    10    22   ar
    16    10    23   ar
    17    11    14   ar
    18    11    18   ar
    19    11    19   ar
    20    12    14    1
    21    13    17    1
    22    15    20    1
    23    16    26    1
    24    17    24   ar
    25    18    22   ar
    26    18    24   ar
    27    19    23   ar
    28    19    25    1
    29    21    26    1
    30     1    27    1
    31     2    28    1
    32     3    29    1
    33     4    30    1
    34     5    31    1
    35     6    32    1
    36     7    33    1
    37     8    34    1
    38     9    35    1
    39    10    36    1
    40    20    37    1
    41    20    38    1
    42    20    39    1
    43    21    40    1
    44    21    41    1
    45    21    42    1
    46    25    43    1
    47    25    44    1
