@<TRIPOS>MOLECULE
AN-689/41741268
 34 36 0 0 0
SMALL
USER_CHARGES

@<TRIPOS>ATOM
      1 C           7.5706    0.7387   -0.0139 C.ar    1  LIG1       -0.0926
      2 C           6.7019    0.4642    1.0422 C.ar    1  LIG1       -0.0859
      3 C           7.1262    1.4816   -1.1078 C.ar    1  LIG1       -0.0835
      4 C           5.3885    0.9324    1.0045 C.ar    1  LIG1       -0.0576
      5 C           5.8128    1.9499   -1.1453 C.ar    1  LIG1       -0.0544
      6 C          -0.1374    4.7389   -1.0107 C.ar    1  LIG1       -0.0463
      7 C           0.9522    5.4969    1.0081 C.ar    1  LIG1       -0.0529
      8 C          -1.0144    5.8215   -0.9439 C.ar    1  LIG1       -0.0390
      9 C           0.0753    6.5796    1.0748 C.ar    1  LIG1       -0.0495
     10 C           4.9439    1.6753   -0.0892 C.ar    1  LIG1       -0.0042
     11 C           0.8459    4.5766   -0.0347 C.ar    1  LIG1       -0.0022
     12 C          -0.9079    6.7419    0.0989 C.ar    1  LIG1       -0.0021
     13 C           2.5241    1.3043   -0.0881 C.2     1  LIG1        0.3114
     14 C           1.2993    2.1714   -0.0723 C.2     1  LIG1        0.3113
     15 C           3.1538    3.4948   -0.2114 C.2     1  LIG1        0.0794
     16 C          -2.7449    7.9037   -0.8664 C.3     1  LIG1        0.0267
     17 N           3.5992    2.1548   -0.1275 N.am    1  LIG1       -0.2006
     18 N           1.7437    3.4682   -0.1029 N.am    1  LIG1       -0.2020
     19 O           2.4191    0.0959   -0.0210 O.2     1  LIG1       -0.3536
     20 O           0.1955    1.6703    0.0074 O.2     1  LIG1       -0.3531
     21 O          -1.7637    7.7983    0.1641 O.3     1  LIG1       -0.4120
     22 S           4.0994    4.8386   -0.5902 S.2     1  LIG1       -0.1929
     23 H           8.5937    0.3750    0.0154 H       1  LIG1        0.1313
     24 H           7.0479   -0.1134    1.8943 H       1  LIG1        0.1312
     25 H           7.8032    1.6960   -1.9295 H       1  LIG1        0.1326
     26 H           4.7204    0.7124    1.8335 H       1  LIG1        0.1369
     27 H           5.4774    2.5279   -2.0028 H       1  LIG1        0.1423
     28 H          -0.2293    4.0279   -1.8279 H       1  LIG1        0.1518
     29 H           1.7145    5.3805    1.7742 H       1  LIG1        0.1510
     30 H          -1.7782    5.9427   -1.7072 H       1  LIG1        0.1434
     31 H           0.1630    7.2932    1.8896 H       1  LIG1        0.1271
     32 H          -3.3612    8.7896   -0.6944 H       1  LIG1        0.1243
     33 H          -3.3697    7.0070   -0.8688 H       1  LIG1        0.0912
     34 H          -2.2394    7.9959   -1.8305 H       1  LIG1        0.0924
@<TRIPOS>BOND
     1     1     2   ar
     2     1     3   ar
     3     2     4   ar
     4     3     5   ar
     5     4    10   ar
     6     5    10   ar
     7     6     8   ar
     8     6    11   ar
     9     7     9   ar
    10     7    11   ar
    11     8    12   ar
    12     9    12   ar
    13    10    17    1
    14    11    18    1
    15    12    21    1
    16    13    14    1
    17    13    17   am
    18    13    19    2
    19    14    18   am
    20    14    20    2
    21    15    17    1
    22    15    18    1
    23    15    22    2
    24    16    21    1
    25     1    23    1
    26     2    24    1
    27     3    25    1
    28     4    26    1
    29     5    27    1
    30     6    28    1
    31     7    29    1
    32     8    30    1
    33     9    31    1
    34    16    32    1
    35    16    33    1
    36    16    34    1
