@<TRIPOS>MOLECULE
AO-365/43400524
 37 40 0 0 0
SMALL
USER_CHARGES

@<TRIPOS>ATOM
      1 C           1.0278    6.4506    0.6322 C.ar    1  LIG1       -0.0773
      2 C           1.0780    5.0568    0.6235 C.ar    1  LIG1       -0.0547
      3 C           5.2588    0.0225    0.3676 C.ar    1  LIG1       -0.0541
      4 C           5.4613    2.2883   -0.4461 C.ar    1  LIG1       -0.0605
      5 C           6.6476   -0.1061    0.3553 C.ar    1  LIG1       -0.0402
      6 C           6.8502    2.1598   -0.4584 C.ar    1  LIG1       -0.0517
      7 C          -0.0476    7.1136    0.0408 C.ar    1  LIG1       -0.0425
      8 C          -1.0224    4.9886   -0.5684 C.ar    1  LIG1       -0.0122
      9 C           0.0530    4.3257    0.0231 C.ar    1  LIG1        0.0171
     10 C           4.6656    1.2196   -0.0332 C.ar    1  LIG1        0.0055
     11 C           7.4433    0.9625   -0.0576 C.ar    1  LIG1       -0.0001
     12 C          -1.0726    6.3826   -0.5596 C.ar    1  LIG1        0.0724
     13 C           0.1047    2.8841    0.0140 C.ar    1  LIG1        0.1135
     14 C           0.8693    0.8686   -0.0040 C.ar    1  LIG1        0.1549
     15 C           3.2258    1.3531   -0.0204 C.ar    1  LIG1        0.1235
     16 C           9.0334    0.4517    2.2818 C.3     1  LIG1       -0.0337
     17 C           9.3782   -0.0418    0.8929 C.3     1  LIG1        0.0175
     18 N          -0.9228    2.0509    0.0170 N.ar    1  LIG1       -0.2268
     19 N          -0.4266    0.7466    0.0054 N.ar    1  LIG1       -0.2347
     20 N           2.5626    2.4827   -0.0079 N.ar    1  LIG1       -0.2769
     21 N           1.2526    2.1611    0.0006 N.ar    1  LIG1       -0.2242
     22 O           8.7986    0.8373   -0.0698 O.3     1  LIG1       -0.4100
     23 F          -2.1054    7.0192   -1.1272 F       1  LIG1       -0.2663
     24 S           2.2384   -0.1463   -0.0208 S.2     1  LIG1        0.0524
     25 H           1.8259    7.0206    1.0993 H       1  LIG1        0.1420
     26 H           1.9229    4.5547    1.0891 H       1  LIG1        0.1504
     27 H           4.6489   -0.8170    0.6917 H       1  LIG1        0.1535
     28 H           5.0088    3.2255   -0.7601 H       1  LIG1        0.1553
     29 H           7.1037   -1.0412    0.6685 H       1  LIG1        0.1432
     30 H           7.4649    2.9955   -0.7814 H       1  LIG1        0.1239
     31 H          -0.0870    8.1985    0.0473 H       1  LIG1        0.1399
     32 H          -1.8288    4.4333   -1.0411 H       1  LIG1        0.1471
     33 H           9.4270    1.4584    2.4472 H       1  LIG1        0.0588
     34 H           7.9483    0.4680    2.4275 H       1  LIG1        0.0491
     35 H           9.4466   -0.2185    3.0430 H       1  LIG1        0.0491
     36 H           8.9817   -1.0491    0.7341 H       1  LIG1        0.0984
     37 H          10.4626   -0.0567    0.7488 H       1  LIG1        0.0983
@<TRIPOS>BOND
     1     1     2   ar
     2     1     7   ar
     3     2     9   ar
     4     3     5   ar
     5     3    10   ar
     6     4     6   ar
     7     4    10   ar
     8     5    11   ar
     9     6    11   ar
    10     7    12   ar
    11     8     9   ar
    12     8    12   ar
    13     9    13    1
    14    10    15    1
    15    11    22    1
    16    12    23    1
    17    13    18   ar
    18    13    21   ar
    19    14    19   ar
    20    14    21   ar
    21    14    24   ar
    22    15    20   ar
    23    15    24   ar
    24    16    17    1
    25    17    22    1
    26    18    19   ar
    27    20    21   ar
    28     1    25    1
    29     2    26    1
    30     3    27    1
    31     4    28    1
    32     5    29    1
    33     6    30    1
    34     7    31    1
    35     8    32    1
    36    16    33    1
    37    16    34    1
    38    16    35    1
    39    17    36    1
    40    17    37    1
