@<TRIPOS>MOLECULE
AI-060/41884474
 39 42 0 0 0
SMALL
USER_CHARGES

@<TRIPOS>ATOM
      1 C           5.6637    2.1363   -1.0863 C.ar    1  LIG1       -0.0708
      2 C           5.6401    0.9118    0.9962 C.ar    1  LIG1       -0.0783
      3 C           0.4274    4.6805   -1.1867 C.ar    1  LIG1       -0.0616
      4 C           0.4491    4.6637    1.2292 C.ar    1  LIG1       -0.0761
      5 C           7.0577    2.0913   -1.0971 C.ar    1  LIG1       -0.0976
      6 C           7.0343    0.8667    0.9855 C.ar    1  LIG1       -0.1023
      7 C          -0.2299    5.9106   -1.1723 C.ar    1  LIG1       -0.0629
      8 C          -0.2083    5.8940    1.2436 C.ar    1  LIG1       -0.0745
      9 C           2.8386    2.8041   -0.0134 C.ar    1  LIG1       -0.0368
     10 C           0.7668    4.0571    0.0141 C.ar    1  LIG1       -0.0474
     11 C           4.9548    1.5466   -0.0396 C.ar    1  LIG1       -0.0290
     12 C           1.4497    2.7777   -0.0009 C.ar    1  LIG1       -0.0311
     13 C           0.7974    1.5475   -0.0042 C.ar    1  LIG1        0.0899
     14 C           7.7431    1.4565   -0.0613 C.ar    1  LIG1       -0.1193
     15 C          -0.5477    6.5174    0.0428 C.ar    1  LIG1       -0.0209
     16 C           3.5118    1.5935   -0.0284 C.ar    1  LIG1       -0.0025
     17 C           1.5507    0.3754   -0.0200 C.ar    1  LIG1        0.0555
     18 C          -0.6743    1.4527    0.0081 C.ar    1  LIG1        0.1259
     19 C          -0.3372   -0.9652   -0.0139 C.ar    1  LIG1       -0.0264
     20 C           9.2336    1.4085   -0.0726 C.3     1  LIG1       -0.0447
     21 N           2.9040    0.3845   -0.0319 N.ar    1  LIG1       -0.3393
     22 N           0.9577   -0.9009   -0.0247 N.ar    1  LIG1       -0.3294
     23 N          -1.1538    0.1530    0.0021 N.ar    1  LIG1       -0.2580
     24 O          -1.4151    2.4282    0.0235 O.2     1  LIG1       -0.4802
     25 S          -1.0340   -2.6285   -0.0220 S.3     1  LIG1       -0.4227
     26 CL         -1.3601    8.0346    0.0598 Cl      1  LIG1       -0.1532
     27 H           5.1439    2.6355   -1.9008 H       1  LIG1        0.1448
     28 H           5.1018    0.4470    1.8188 H       1  LIG1        0.1286
     29 H           0.6682    4.2201   -2.1419 H       1  LIG1        0.1490
     30 H           0.7062    4.1899    2.1736 H       1  LIG1        0.1330
     31 H           7.6018    2.5543   -1.9160 H       1  LIG1        0.1165
     32 H           7.5601    0.3696    1.7964 H       1  LIG1        0.1143
     33 H          -0.4903    6.3847   -2.1155 H       1  LIG1        0.1289
     34 H          -0.4507    6.3547    2.1979 H       1  LIG1        0.1254
     35 H           3.3846    3.7439   -0.0102 H       1  LIG1        0.1245
     36 H           9.6478    2.2819    0.4458 H       1  LIG1        0.0518
     37 H           9.6069    0.5017    0.4208 H       1  LIG1        0.0545
     38 H           9.6240    1.3953   -1.0986 H       1  LIG1        0.0545
     39 H          -2.1597    0.0122    0.0120 H       1  LIG1        0.3676
@<TRIPOS>BOND
     1     1     5   ar
     2     1    11   ar
     3     2     6   ar
     4     2    11   ar
     5     3     7   ar
     6     3    10   ar
     7     4     8   ar
     8     4    10   ar
     9     5    14   ar
    10     6    14   ar
    11     7    15   ar
    12     8    15   ar
    13     9    12   ar
    14     9    16   ar
    15    10    12    1
    16    11    16    1
    17    12    13   ar
    18    13    17   ar
    19    13    18   ar
    20    14    20    1
    21    15    26    1
    22    16    21   ar
    23    17    21   ar
    24    17    22   ar
    25    18    23   ar
    26    18    24    2
    27    19    22   ar
    28    19    23   ar
    29    19    25    1
    30     1    27    1
    31     2    28    1
    32     3    29    1
    33     4    30    1
    34     5    31    1
    35     6    32    1
    36     7    33    1
    37     8    34    1
    38     9    35    1
    39    20    36    1
    40    20    37    1
    41    20    38    1
    42    23    39    1
