@<TRIPOS>MOLECULE
AG-205/12368057
 41 44 0 0 0
SMALL
USER_CHARGES

@<TRIPOS>ATOM
      1 C           5.5363    2.2369   -0.6900 C.ar    1  LIG1       -0.0652
      2 C           5.2805    0.2110    0.6013 C.ar    1  LIG1       -0.0592
      3 C           0.3091    5.2282    1.3483 C.ar    1  LIG1       -0.0921
      4 C           0.2758    4.6387   -0.9945 C.ar    1  LIG1       -0.0959
      5 C          -0.3539    6.4205    1.0577 C.ar    1  LIG1       -0.0973
      6 C          -0.3872    5.8310   -1.2851 C.ar    1  LIG1       -0.0993
      7 C           6.9191    2.0549   -0.7019 C.ar    1  LIG1       -0.0636
      8 C           6.6635    0.0289    0.5895 C.ar    1  LIG1       -0.0601
      9 C          -0.9839    0.5252    0.0459 C.ar    1  LIG1        0.0578
     10 C           4.7170    1.3151   -0.0384 C.ar    1  LIG1       -0.0183
     11 C           0.6240    4.3374    0.3221 C.ar    1  LIG1       -0.0744
     12 C          -0.7021    6.7219   -0.2590 C.ar    1  LIG1       -0.1121
     13 C           7.4827    0.9509   -0.0622 C.ar    1  LIG1       -0.0084
     14 C           1.1230    0.6447    0.0005 C.ar    1  LIG1        0.1036
     15 C           3.2386    1.5092   -0.0259 C.2     1  LIG1        0.0178
     16 C           2.6978    2.9386   -0.0744 C.3     1  LIG1        0.0523
     17 C           1.3433    3.0429    0.6366 C.3     1  LIG1        0.0470
     18 C          -2.9303    7.8444   -0.5076 C.3     1  LIG1       -0.0630
     19 C          -1.4126    7.9962   -0.5686 C.3     1  LIG1       -0.0475
     20 N           0.1395   -0.2162   -0.1893 N.ar    1  LIG1       -0.3134
     21 N          -0.7769    1.7997    0.3775 N.ar    1  LIG1       -0.3062
     22 N           2.4678    0.4591   -0.0195 N.2     1  LIG1       -0.2949
     23 N           0.5602    1.8604    0.3019 N.ar    1  LIG1       -0.2687
     24 CL          9.1885    0.7256   -0.0780 Cl      1  LIG1       -0.1329
     25 H           5.1077    3.1010   -1.1911 H       1  LIG1        0.1456
     26 H           4.6517   -0.5138    1.1119 H       1  LIG1        0.1581
     27 H           0.5769    5.0017    2.3770 H       1  LIG1        0.1270
     28 H           0.5161    3.9495   -1.7999 H       1  LIG1        0.1167
     29 H          -0.5966    7.1076    1.8638 H       1  LIG1        0.1220
     30 H          -0.6551    6.0582   -2.3136 H       1  LIG1        0.1202
     31 H           7.5456    2.7807   -1.2139 H       1  LIG1        0.1384
     32 H           7.0884   -0.8359    1.0924 H       1  LIG1        0.1389
     33 H          -1.9830    0.1218   -0.0263 H       1  LIG1        0.2920
     34 H           3.4271    3.5500    0.4637 H       1  LIG1        0.1209
     35 H           2.6489    3.2958   -1.1024 H       1  LIG1        0.1137
     36 H           1.5203    3.0124    1.7477 H       1  LIG1        0.1715
     37 H          -3.2748    7.0622   -1.1927 H       1  LIG1        0.0376
     38 H          -3.4247    8.7804   -0.7858 H       1  LIG1        0.0335
     39 H          -3.2578    7.5748    0.5022 H       1  LIG1        0.0340
     40 H          -1.1018    8.7888    0.1307 H       1  LIG1        0.0618
     41 H          -1.1273    8.3616   -1.5683 H       1  LIG1        0.0623
@<TRIPOS>BOND
     1     1     7   ar
     2     1    10   ar
     3     2     8   ar
     4     2    10   ar
     5     3     5   ar
     6     3    11   ar
     7     4     6   ar
     8     4    11   ar
     9     5    12   ar
    10     6    12   ar
    11     7    13   ar
    12     8    13   ar
    13     9    20   ar
    14     9    21   ar
    15    10    15    1
    16    11    17    1
    17    12    19    1
    18    13    24    1
    19    14    20   ar
    20    14    22    1
    21    14    23   ar
    22    15    16    1
    23    15    22    2
    24    16    17    1
    25    17    23    1
    26    18    19    1
    27    21    23   ar
    28     1    25    1
    29     2    26    1
    30     3    27    1
    31     4    28    1
    32     5    29    1
    33     6    30    1
    34     7    31    1
    35     8    32    1
    36     9    33    1
    37    16    34    1
    38    16    35    1
    39    17    36    1
    40    18    37    1
    41    18    38    1
    42    18    39    1
    43    19    40    1
    44    19    41    1
