@<TRIPOS>MOLECULE
AK-087/42718335
 37 39 0 0 0
SMALL
USER_CHARGES

@<TRIPOS>ATOM
      1 C          -0.4228    0.4429   -0.6733 C.1     1  LIG1        0.0327
      2 C          -0.5772    6.8373    0.0440 C.ar    1  LIG1       -0.0980
      3 C          -0.7087    5.9264   -1.0041 C.ar    1  LIG1       -0.0880
      4 C           0.3241    6.5851    1.0783 C.ar    1  LIG1       -0.0921
      5 C           5.3979    1.0575    1.0038 C.ar    1  LIG1       -0.0645
      6 C           5.6637    2.2374   -1.0877 C.ar    1  LIG1       -0.0745
      7 C           0.0610    4.7633   -1.0180 C.ar    1  LIG1       -0.0515
      8 C           1.0938    5.4220    1.0644 C.ar    1  LIG1       -0.0582
      9 C           6.7526    0.7255    0.9887 C.ar    1  LIG1       -0.0520
     10 C           7.0185    1.9056   -1.1027 C.ar    1  LIG1       -0.0647
     11 C           2.3725    1.2594   -0.0122 C.ar    1  LIG1       -0.0361
     12 C           4.8534    1.8133   -0.0345 C.ar    1  LIG1       -0.0333
     13 C           0.9623    4.5110    0.0164 C.ar    1  LIG1       -0.0086
     14 C           7.5629    1.1497   -0.0645 C.ar    1  LIG1       -0.0136
     15 C           3.4588    2.1548   -0.0198 C.ar    1  LIG1        0.0056
     16 C           1.2618    2.0672    0.0021 C.ar    1  LIG1       -0.0014
     17 C           9.3761    0.0514    1.0133 C.3     1  LIG1        0.0237
     18 C          -0.1739    1.7236    0.0174 C.3     1  LIG1        0.1205
     19 N          -0.6084   -0.5641   -1.2191 N.1     1  LIG1       -0.3865
     20 N           3.0731    3.4336   -0.0114 N.ar    1  LIG1       -0.3127
     21 N           1.7320    3.3475    0.0017 N.ar    1  LIG1       -0.2895
     22 O           8.8849    0.8262   -0.0793 O.3     1  LIG1       -0.4177
     23 H          -1.1749    7.7440    0.0544 H       1  LIG1        0.1243
     24 H          -1.4095    6.1232   -1.8102 H       1  LIG1        0.1301
     25 H           0.4270    7.2957    1.8933 H       1  LIG1        0.1289
     26 H           4.7794    0.7194    1.8319 H       1  LIG1        0.1459
     27 H           5.2543    2.8269   -1.9046 H       1  LIG1        0.1392
     28 H          -0.0507    4.0619   -1.8413 H       1  LIG1        0.1404
     29 H           1.7932    5.2382    1.8766 H       1  LIG1        0.1261
     30 H           7.1715    0.1365    1.8000 H       1  LIG1        0.1306
     31 H           7.6440    2.2385   -1.9265 H       1  LIG1        0.1148
     32 H           2.3884    0.1786   -0.0163 H       1  LIG1        0.1356
     33 H          10.4441   -0.1359    0.8772 H       1  LIG1        0.0896
     34 H           8.8327   -0.8956    1.0631 H       1  LIG1        0.1217
     35 H           9.2214    0.6071    1.9411 H       1  LIG1        0.0895
     36 H          -0.7796    2.5118   -0.4629 H       1  LIG1        0.1654
     37 H          -0.5584    1.6534    1.0498 H       1  LIG1        0.1782
@<TRIPOS>BOND
     1     1    18    1
     2     1    19    3
     3     2     3   ar
     4     2     4   ar
     5     3     7   ar
     6     4     8   ar
     7     5     9   ar
     8     5    12   ar
     9     6    10   ar
    10     6    12   ar
    11     7    13   ar
    12     8    13   ar
    13     9    14   ar
    14    10    14   ar
    15    11    15   ar
    16    11    16   ar
    17    12    15    1
    18    13    21    1
    19    14    22    1
    20    15    20   ar
    21    16    18    1
    22    16    21   ar
    23    17    22    1
    24    20    21   ar
    25     2    23    1
    26     3    24    1
    27     4    25    1
    28     5    26    1
    29     6    27    1
    30     7    28    1
    31     8    29    1
    32     9    30    1
    33    10    31    1
    34    11    32    1
    35    17    33    1
    36    17    34    1
    37    17    35    1
    38    18    36    1
    39    18    37    1
