@<TRIPOS>MOLECULE
AG-690/36720042
 39 41 0 0 0
SMALL
USER_CHARGES

@<TRIPOS>ATOM
      1 C           7.3997    0.9182   -0.0642 C.ar    1  LIG1       -0.1003
      2 C           6.9244    1.7209   -1.1010 C.ar    1  LIG1       -0.0953
      3 C           6.5549    0.5652    0.9881 C.ar    1  LIG1       -0.0895
      4 C          -0.1294    4.8641   -1.0179 C.ar    1  LIG1       -0.0909
      5 C           5.6042    2.1709   -1.0857 C.ar    1  LIG1       -0.0603
      6 C           5.2346    1.0151    1.0035 C.ar    1  LIG1       -0.0514
      7 C          -0.9685    5.9782   -1.0037 C.ar    1  LIG1       -0.0614
      8 C           0.8546    5.5785    1.0699 C.ar    1  LIG1       -0.0452
      9 C           1.3426    2.1419   -0.0001 C.ar    1  LIG1        0.0009
     10 C           0.7822    4.6642    0.0189 C.ar    1  LIG1       -0.0768
     11 C           1.6452    3.5167    0.0046 C.ar    1  LIG1       -0.0060
     12 C           4.7592    1.8180   -0.0334 C.ar    1  LIG1       -0.0059
     13 C          -0.8961    6.8925    0.0473 C.ar    1  LIG1        0.0288
     14 C           0.0155    6.6927    1.0841 C.ar    1  LIG1        0.0341
     15 C           3.0177    3.5663   -0.0076 C.ar    1  LIG1       -0.0059
     16 C          -2.6224    8.1075   -1.0478 C.3     1  LIG1        0.0231
     17 C           1.0530    7.3017    3.1355 C.3     1  LIG1        0.0242
     18 N           2.4351    1.3735   -0.0143 N.ar    1  LIG1       -0.3278
     19 N           3.4376    2.2687   -0.0188 N.ar    1  LIG1       -0.2746
     20 N           3.8903    4.5993   -0.0098 N.pl3   1  LIG1       -0.3801
     21 O          -1.7199    7.9774    0.0490 O.3     1  LIG1       -0.4121
     22 O           0.0951    7.5787    2.1158 O.3     1  LIG1       -0.4092
     23 H           8.4270    0.5661   -0.0766 H       1  LIG1        0.1209
     24 H           7.5817    1.9948   -1.9211 H       1  LIG1        0.1286
     25 H           6.9254   -0.0611    1.7945 H       1  LIG1        0.1298
     26 H          -0.1982    4.1601   -1.8438 H       1  LIG1        0.1176
     27 H           5.2461    2.7954   -1.9005 H       1  LIG1        0.1246
     28 H           4.5866    0.7319    1.8294 H       1  LIG1        0.1395
     29 H          -1.6771    6.1276   -1.8142 H       1  LIG1        0.1225
     30 H           1.5621    5.4311    1.8834 H       1  LIG1        0.1293
     31 H           0.3731    1.6638    0.0062 H       1  LIG1        0.2287
     32 H          -3.2203    9.0137   -0.9231 H       1  LIG1        0.0876
     33 H          -3.2742    7.2313   -1.0905 H       1  LIG1        0.0872
     34 H          -2.0479    8.1774   -1.9745 H       1  LIG1        0.1206
     35 H           1.0129    8.0848    3.8966 H       1  LIG1        0.0878
     36 H           2.0525    7.2572    2.6954 H       1  LIG1        0.0887
     37 H           0.8158    6.3388    3.5940 H       1  LIG1        0.1209
     38 H           3.5765    5.5791   -0.0491 H       1  LIG1        0.2797
     39 H           4.9079    4.4541   -0.0674 H       1  LIG1        0.2676
@<TRIPOS>BOND
     1     1     2   ar
     2     1     3   ar
     3     2     5   ar
     4     3     6   ar
     5     4     7   ar
     6     4    10   ar
     7     5    12   ar
     8     6    12   ar
     9     7    13   ar
    10     8    10   ar
    11     8    14   ar
    12     9    11   ar
    13     9    18   ar
    14    10    11    1
    15    11    15   ar
    16    12    19    1
    17    13    14   ar
    18    13    21    1
    19    14    22    1
    20    15    19   ar
    21    15    20    1
    22    16    21    1
    23    17    22    1
    24    18    19   ar
    25     1    23    1
    26     2    24    1
    27     3    25    1
    28     4    26    1
    29     5    27    1
    30     6    28    1
    31     7    29    1
    32     8    30    1
    33     9    31    1
    34    16    32    1
    35    16    33    1
    36    16    34    1
    37    17    35    1
    38    17    36    1
    39    17    37    1
    40    20    38    1
    41    20    39    1
