@<TRIPOS>MOLECULE
AO-365/43301083
 45 48 0 0 0
SMALL
USER_CHARGES

@<TRIPOS>ATOM
      1 C          -1.0201    5.0578   -0.5682 C.ar    1  LIG1       -0.0640
      2 C           1.0803    5.1217    0.6240 C.ar    1  LIG1       -0.0592
      3 C           5.2519    0.0803    0.3681 C.ar    1  LIG1       -0.0543
      4 C           5.4584    2.3458   -0.4456 C.ar    1  LIG1       -0.0608
      5 C          -1.0676    6.4519   -0.5593 C.ar    1  LIG1       -0.0615
      6 C           1.0329    6.5158    0.6328 C.ar    1  LIG1       -0.0581
      7 C           6.6405   -0.0507    0.3558 C.ar    1  LIG1       -0.0409
      8 C           6.8471    2.2148   -0.4578 C.ar    1  LIG1       -0.0527
      9 C           0.0538    4.3927    0.0235 C.ar    1  LIG1        0.0060
     10 C           4.6608    1.2785   -0.0328 C.ar    1  LIG1        0.0045
     11 C          -0.0411    7.1808    0.0412 C.ar    1  LIG1       -0.0679
     12 C           7.4381    1.0164   -0.0571 C.ar    1  LIG1       -0.0012
     13 C           0.1028    2.9512    0.0144 C.ar    1  LIG1        0.1031
     14 C           0.8638    0.9342   -0.0036 C.ar    1  LIG1        0.1485
     15 C           3.2213    1.4146   -0.0199 C.ar    1  LIG1        0.1203
     16 C           9.0272    0.5027    2.2825 C.3     1  LIG1       -0.0338
     17 C          -1.2005    9.2910   -0.5617 C.3     1  LIG1       -0.0349
     18 C           0.9658    9.3564    0.6839 C.3     1  LIG1       -0.0351
     19 C           9.3711    0.0086    0.8934 C.3     1  LIG1        0.0171
     20 N          -0.9261    2.1198    0.0174 N.ar    1  LIG1       -0.2353
     21 N          -0.4323    0.8146    0.0058 N.ar    1  LIG1       -0.2417
     22 N           2.5601    2.5453   -0.0074 N.ar    1  LIG1       -0.2771
     23 N           1.2496    2.2260    0.0011 N.ar    1  LIG1       -0.2265
     24 N          -0.0890    8.5903    0.0502 N.pl3   1  LIG1       -0.4221
     25 O           8.7931    0.8888   -0.0692 O.3     1  LIG1       -0.4106
     26 S           2.2312   -0.0832   -0.0204 S.2     1  LIG1        0.0444
     27 H          -1.8281    4.5037   -1.0401 H       1  LIG1        0.1420
     28 H           1.9242    4.6178    1.0892 H       1  LIG1        0.1524
     29 H           4.6405   -0.7580    0.6921 H       1  LIG1        0.1530
     30 H           5.0077    3.2837   -0.7596 H       1  LIG1        0.1548
     31 H          -1.9092    6.9601   -1.0230 H       1  LIG1        0.1178
     32 H           1.8382    7.0738    1.1035 H       1  LIG1        0.1211
     33 H           7.0949   -0.9867    0.6691 H       1  LIG1        0.1424
     34 H           7.4633    3.0495   -0.7808 H       1  LIG1        0.1228
     35 H           9.4226    1.5087    2.4477 H       1  LIG1        0.0585
     36 H           7.9422    0.5209    2.4280 H       1  LIG1        0.0490
     37 H           9.4392   -0.1682    3.0436 H       1  LIG1        0.0490
     38 H          -1.0667   10.3709   -0.4582 H       1  LIG1        0.0808
     39 H          -2.1392    9.0048   -0.0796 H       1  LIG1        0.0928
     40 H          -1.2633    9.0444   -1.6250 H       1  LIG1        0.0947
     41 H           0.7601   10.4262    0.5922 H       1  LIG1        0.0802
     42 H           1.9268    9.1409    0.2092 H       1  LIG1        0.0931
     43 H           1.0336    9.1008    1.7447 H       1  LIG1        0.0936
     44 H           8.9728   -0.9980    0.7347 H       1  LIG1        0.0980
     45 H          10.4555   -0.0082    0.7494 H       1  LIG1        0.0980
@<TRIPOS>BOND
     1     1     5   ar
     2     1     9   ar
     3     2     6   ar
     4     2     9   ar
     5     3     7   ar
     6     3    10   ar
     7     4     8   ar
     8     4    10   ar
     9     5    11   ar
    10     6    11   ar
    11     7    12   ar
    12     8    12   ar
    13     9    13    1
    14    10    15    1
    15    11    24    1
    16    12    25    1
    17    13    20   ar
    18    13    23   ar
    19    14    21   ar
    20    14    23   ar
    21    14    26   ar
    22    15    22   ar
    23    15    26   ar
    24    16    19    1
    25    17    24    1
    26    18    24    1
    27    19    25    1
    28    20    21   ar
    29    22    23   ar
    30     1    27    1
    31     2    28    1
    32     3    29    1
    33     4    30    1
    34     5    31    1
    35     6    32    1
    36     7    33    1
    37     8    34    1
    38    16    35    1
    39    16    36    1
    40    16    37    1
    41    17    38    1
    42    17    39    1
    43    17    40    1
    44    18    41    1
    45    18    42    1
    46    18    43    1
    47    19    44    1
    48    19    45    1
