@<TRIPOS>MOLECULE
AO-365/43113460
 36 39 0 0 0
SMALL
USER_CHARGES

@<TRIPOS>ATOM
      1 C           5.2344    0.2226    0.3691 C.ar    1  LIG1       -0.0635
      2 C           5.4525    2.4870   -0.4446 C.ar    1  LIG1       -0.0509
      3 C           6.6222    0.0845    0.3569 C.ar    1  LIG1       -0.0530
      4 C           6.8405    2.3489   -0.4568 C.ar    1  LIG1       -0.0387
      5 C          -1.0073    5.2308   -0.5645 C.ar    1  LIG1       -0.0338
      6 C           1.0840    5.2839    0.6222 C.ar    1  LIG1       -0.0289
      7 C          -1.0006    6.6160   -0.5293 C.ar    1  LIG1       -0.0319
      8 C           0.9971    6.6666    0.6041 C.ar    1  LIG1       -0.0286
      9 C           0.0585    4.5597    0.0246 C.ar    1  LIG1        0.0169
     10 C           4.6494    1.4238   -0.0317 C.ar    1  LIG1        0.0058
     11 C           7.4254    1.1476   -0.0561 C.ar    1  LIG1       -0.0000
     12 C           0.1001    3.1199    0.0155 C.ar    1  LIG1        0.1148
     13 C           0.8508    1.0991   -0.0024 C.ar    1  LIG1        0.1560
     14 C           3.2024    1.5682   -0.0188 C.ar    1  LIG1        0.1241
     15 C           9.4215   -1.2634    0.3064 C.3     1  LIG1       -0.0337
     16 C           9.3532    0.1298    0.8945 C.3     1  LIG1        0.0175
     17 N          -0.0223    7.3538    0.0419 N.ar    1  LIG1       -0.3973
     18 N          -0.9331    2.2938    0.0185 N.ar    1  LIG1       -0.2250
     19 N          -0.4459    0.9861    0.0069 N.ar    1  LIG1       -0.2332
     20 N           2.5552    2.7014   -0.0063 N.ar    1  LIG1       -0.2756
     21 N           1.2431    2.3889    0.0022 N.ar    1  LIG1       -0.2231
     22 O           8.7797    1.0130   -0.0684 O.3     1  LIG1       -0.4099
     23 S           2.2129    0.0747   -0.0193 S.2     1  LIG1        0.0531
     24 H           4.6186   -0.6125    0.6932 H       1  LIG1        0.1484
     25 H           5.0065    3.4272   -0.7586 H       1  LIG1        0.1608
     26 H           7.0720   -0.8538    0.6701 H       1  LIG1        0.1253
     27 H           7.4610    3.1803   -0.7798 H       1  LIG1        0.1420
     28 H          -1.8258    4.7003   -1.0403 H       1  LIG1        0.1412
     29 H           1.9319    4.7958    1.0919 H       1  LIG1        0.1516
     30 H          -1.8089    7.1867   -0.9744 H       1  LIG1        0.2062
     31 H           1.7713    7.2777    1.0567 H       1  LIG1        0.2094
     32 H           8.4230   -1.6280    0.0497 H       1  LIG1        0.0490
     33 H          10.0435   -1.2721   -0.5946 H       1  LIG1        0.0589
     34 H           9.8801   -1.9598    1.0164 H       1  LIG1        0.0490
     35 H          10.3550    0.4886    1.1490 H       1  LIG1        0.0985
     36 H           8.7308    0.1369    1.7942 H       1  LIG1        0.0985
@<TRIPOS>BOND
     1     1     3   ar
     2     1    10   ar
     3     2     4   ar
     4     2    10   ar
     5     3    11   ar
     6     4    11   ar
     7     5     7   ar
     8     5     9   ar
     9     6     8   ar
    10     6     9   ar
    11     7    17   ar
    12     8    17   ar
    13     9    12    1
    14    10    14    1
    15    11    22    1
    16    12    18   ar
    17    12    21   ar
    18    13    19   ar
    19    13    21   ar
    20    13    23   ar
    21    14    20   ar
    22    14    23   ar
    23    15    16    1
    24    16    22    1
    25    18    19   ar
    26    20    21   ar
    27     1    24    1
    28     2    25    1
    29     3    26    1
    30     4    27    1
    31     5    28    1
    32     6    29    1
    33     7    30    1
    34     8    31    1
    35    15    32    1
    36    15    33    1
    37    15    34    1
    38    16    35    1
    39    16    36    1
