@<TRIPOS>MOLECULE
ZINC03852042
 46 49 0 0 0
SMALL
USER_CHARGES

@<TRIPOS>ATOM
      1 C1         -2.6676    8.0368   -0.9038 C.3     1  <0>1        0.0788
      2 O1         -1.6141    7.9925    0.0607 O.3     1  <0>1       -0.4951
      3 C2         -0.8108    6.8962    0.0472 C.ar    1  <0>1        0.1201
      4 C3          0.2316    6.7902    0.9577 C.ar    1  <0>1       -0.0194
      5 C4          1.0489    5.6792    0.9463 C.ar    1  <0>1       -0.0505
      6 C5          0.8272    4.6621    0.0190 C.ar    1  <0>1       -0.0155
      7 C6         -0.2170    4.7743   -0.8978 C.ar    1  <0>1       -0.0505
      8 C7         -1.0342    5.8853   -0.8774 C.ar    1  <0>1       -0.0194
      9 C8          1.7039    3.4662    0.0039 C.ar    1  <0>1        0.0129
     10 C9          3.0626    3.4529   -0.0093 C.ar    1  <0>1        0.0202
     11 N1          3.5031    2.1573   -0.0202 N.ar    1  <0>1       -0.3001
     12 C10         2.4414    1.2950   -0.0148 C.ar    1  <0>1        0.1510
     13 C11         1.2772    2.0656    0.0010 C.ar    1  <0>1        0.0702
     14 C12        -0.0167    1.3798    0.0096 C.ar    1  <0>1        0.1554
     15 N2         -1.1457    2.0488    0.0187 N.2     1  <0>1       -0.2815
     16 N3          0.0021   -0.0041    0.0020 N.ar    1  <0>1       -0.2394
     17 C13         1.1940   -0.6588   -0.0129 C.ar    1  <0>1        0.1174
     18 N4          2.3394   -0.0465   -0.0210 N.ar    1  <0>1       -0.2174
     19 N5         -1.1688   -0.7076    0.0090 N.pl3   1  <0>1       -0.2955
     20 C14         4.8507    1.7692   -0.0355 C.ar    1  <0>1        0.0482
     21 C15         5.3142    0.8334    0.8794 C.ar    1  <0>1       -0.0343
     22 C16         6.6400    0.4480    0.8607 C.ar    1  <0>1       -0.0180
     23 C17         7.5110    1.0031   -0.0655 C.ar    1  <0>1        0.1202
     24 C18         7.0495    1.9421   -0.9766 C.ar    1  <0>1       -0.0180
     25 C19         5.7229    2.3247   -0.9619 C.ar    1  <0>1       -0.0343
     26 O2          8.8175    0.6271   -0.0801 O.3     1  <0>1       -0.4951
     27 C20         9.2238   -0.3441    0.8861 C.3     1  <0>1        0.0788
     28 H1         -2.2435    7.9968   -1.9071 H       1  <0>1        0.0660
     29 H2         -3.3317    7.1852   -0.7559 H       1  <0>1        0.0660
     30 H3         -3.2311    8.9621   -0.7841 H       1  <0>1        0.0660
     31 H4          0.4030    7.5786    1.6756 H       1  <0>1        0.0654
     32 H5          1.8599    5.5974    1.6548 H       1  <0>1        0.0625
     33 H6         -0.3884    3.9904   -1.6206 H       1  <0>1        0.0625
     34 H7         -1.8463    5.9706   -1.5843 H       1  <0>1        0.0654
     35 H8          3.6958    4.3279   -0.0110 H       1  <0>1        0.0820
     36 H9         -1.9912    1.5733    0.0202 H       1  <0>1        0.1884
     37 H10         1.1878   -1.7388   -0.0186 H       1  <0>1        0.1046
     38 H11        -1.4874   -0.8888   -0.9311 H       1  <0>1        0.1627
     39 H12        -1.0715   -1.5664    0.5296 H       1  <0>1        0.1627
     40 H13         4.6371    0.4042    1.6031 H       1  <0>1        0.0639
     41 H14         6.9999   -0.2827    1.5699 H       1  <0>1        0.0655
     42 H15         7.7281    2.3742   -1.6971 H       1  <0>1        0.0655
     43 H16         5.3639    3.0563   -1.6707 H       1  <0>1        0.0639
     44 H17         9.0415    0.0426    1.8888 H       1  <0>1        0.0660
     45 H18         8.6534   -1.2616    0.7412 H       1  <0>1        0.0660
     46 H19        10.2866   -0.5542    0.7654 H       1  <0>1        0.0660
@<TRIPOS>BOND
     1     1     2    1
     2     1    28    1
     3     1    29    1
     4     1    30    1
     5     2     3    1
     6     3     8   ar
     7     3     4   ar
     8     4     5   ar
     9     4    31    1
    10     5     6   ar
    11     5    32    1
    12     6     7   ar
    13     6     9    1
    14     7     8   ar
    15     7    33    1
    16     8    34    1
    17     9    13   ar
    18     9    10   ar
    19    10    11   ar
    20    10    35    1
    21    11    12   ar
    22    11    20    1
    23    12    18   ar
    24    12    13   ar
    25    13    14   ar
    26    14    15    2
    27    14    16   ar
    28    15    36    1
    29    16    17   ar
    30    16    19    1
    31    17    18   ar
    32    17    37    1
    33    19    38    1
    34    19    39    1
    35    20    25   ar
    36    20    21   ar
    37    21    22   ar
    38    21    40    1
    39    22    23   ar
    40    22    41    1
    41    23    24   ar
    42    23    26    1
    43    24    25   ar
    44    24    42    1
    45    25    43    1
    46    26    27    1
    47    27    44    1
    48    27    45    1
    49    27    46    1
