@<TRIPOS>MOLECULE
*****
 10 5 0 0 0
SMALL
GASTEIGER

@<TRIPOS>ATOM
      1 C          -2.6833    4.9833    0.0000 C.3     1  LIG1        0.0000
      2 C          -1.1833    4.9833    0.0000 C.3     1  LIG1        0.0000
      3 C          -0.1500    5.5167    0.0000 C.3     2  LIG2        0.0000
      4 C           1.3500    5.5167    0.0000 C.3     2  LIG2        0.0000
      5 C           1.8833    2.2833    0.0000 C.3     3  LIG3        0.0000
      6 C           3.3833    2.2833    0.0000 C.3     3  LIG3        0.0000
      7 C           2.0500   -1.5167    0.0000 C.3     4  LIG4        0.0000
      8 C           3.5500   -1.5167    0.0000 C.3     4  LIG4        0.0000
      9 C           5.0167   -2.5833    0.0000 C.3     5  LIG5        0.0000
     10 C           6.4656   -2.9716    0.0000 C.3     5  LIG5        0.0000
@<TRIPOS>BOND
     1     1     2    1
     2     3     4    1
     3     5     6    1
     4     7     8    1
     5     9    10    1
