@<TRIPOS>MOLECULE
*****
 14 15 0 0 0
SMALL
GASTEIGER

@<TRIPOS>ATOM
      1 C          -1.2991   -0.7500    0.0000 C.ar    1  LIG1        0.3350
      2 N          -1.2991    0.7500    0.0000 N.ar    1  LIG1       -0.2454
      3 C           1.2991   -0.7500    0.0000 C.ar    1  LIG1        0.1696
      4 C           1.2991    0.7500    0.0000 C.ar    1  LIG1        0.1528
      5 N           0.0000   -1.5000    0.0000 N.ar    1  LIG1       -0.2628
      6 C           0.0000    1.5000    0.0000 C.ar    1  LIG1        0.2832
      7 N           2.7258    1.2134    0.0000 N.ar    1  LIG1       -0.3021
      8 N           2.7258   -1.2136    0.0000 N.ar    1  LIG1       -0.2063
      9 C           3.6074    0.0000    0.0000 C.ar    1  LIG1        0.1802
     10 O          -2.5980   -1.5000    0.0000 O.2     1  LIG1       -0.2461
     11 O           0.0002    3.0000    0.0000 O.2     1  LIG1       -0.2652
     12 C           0.0002   -3.0000    0.0000 C.3     1  LIG1        0.1366
     13 C           3.1892    2.6400    0.0000 C.3     1  LIG1        0.1322
     14 C          -2.5980    1.5000    0.0000 C.3     1  LIG1        0.1383
@<TRIPOS>BOND
     1    10     1    2
     2     1     2   ar
     3    14     2    1
     4     8     3   ar
     5     4     3   ar
     6     7     4   ar
     7     1     5   ar
     8     5     3   ar
     9    12     5    1
    10     6     2   ar
    11     6     4   ar
    12    11     6    2
    13     9     7   ar
    14    13     7    1
    15     9     8   ar
