# Name:		ZINC01719019
# Created and modified by SHAFTS on Mon Jun 23 14:53:19 2014

# 

@<TRIPOS>MOLECULE
ZINC01719019
   40    42     0
SMALL
USER_CHARGE


@<TRIPOS>ATOM
      1 C1          1.3900    4.6782    6.3885 C.ar      1 <1>        -0.1088
      2 C2          2.7082    4.3178    6.1731 C.ar      1 <1>        -0.1054
      3 C3          3.1673    4.1047    4.8896 C.ar      1 <1>        -0.0970
      4 C4          2.2988    4.2530    3.8076 C.ar      1 <1>        -0.0949
      5 C5          0.9718    4.6218    4.0313 C.ar      1 <1>        -0.0988
      6 C6          0.5237    4.8264    5.3201 C.ar      1 <1>        -0.1066
      7 C7          2.7839    4.0262    2.4299 C.2       1 <1>        -0.0929
      8 C8          1.9564    4.1678    1.4040 C.2       1 <1>        -0.0753
      9 C9          2.4510    3.9366   -0.0006 C.3       1 <1>         0.0278
     10 C10         1.6589    2.8225   -0.6351 C.ar      1 <1>        -0.0583
     11 C11         2.3097    1.8220   -1.3324 C.ar      1 <1>        -0.0844
     12 C12         1.5832    0.8001   -1.9143 C.ar      1 <1>        -0.1030
     13 C13         0.2054    0.7816   -1.8036 C.ar      1 <1>        -0.1086
     14 C14        -0.4450    1.7793   -1.1018 C.ar      1 <1>        -0.1056
     15 C15         0.2816    2.8010   -0.5194 C.ar      1 <1>        -0.0897
     16 C16         2.2794    5.1977   -0.8076 C.ar      1 <1>        -0.0682
     17 C17         1.0696    5.8664   -0.7961 C.ar      1 <1>        -0.0952
     18 C18         0.9137    7.0258   -1.5325 C.ar      1 <1>        -0.1060
     19 C19         1.9643    7.5108   -2.2887 C.ar      1 <1>        -0.1083
     20 C20         3.1725    6.8393   -2.3043 C.ar      1 <1>        -0.1059
     21 C21         3.3300    5.6827   -1.5638 C.ar      1 <1>        -0.0940
     22 O1          3.8338    3.5779    0.0343 O.3       1 <1>        -0.4590
     23 H1          1.0357    4.8442    7.3951 H         1 <1>         0.1143
     24 H2          3.3794    4.2033    7.0114 H         1 <1>         0.1160
     25 H3          4.1966    3.8233    4.7227 H         1 <1>         0.1212
     26 H4          0.2958    4.7426    3.1977 H         1 <1>         0.1175
     27 H5         -0.5042    5.1077    5.4949 H         1 <1>         0.1153
     28 H6          3.8126    3.7450    2.2590 H         1 <1>         0.1235
     29 H7          0.9277    4.4490    1.5748 H         1 <1>         0.1150
     30 H8          3.3858    1.8388   -1.4227 H         1 <1>         0.1308
     31 H9          2.0916    0.0185   -2.4594 H         1 <1>         0.1152
     32 H10        -0.3626   -0.0144   -2.2620 H         1 <1>         0.1142
     33 H11        -1.5211    1.7626   -1.0117 H         1 <1>         0.1152
     34 H12        -0.2269    3.5825    0.0257 H         1 <1>         0.1175
     35 H13         0.2474    5.4850   -0.2088 H         1 <1>         0.1172
     36 H14        -0.0303    7.5503   -1.5206 H         1 <1>         0.1156
     37 H15         1.8412    8.4142   -2.8676 H         1 <1>         0.1146
     38 H16         3.9932    7.2180   -2.8954 H         1 <1>         0.1159
     39 H17         4.2738    5.1579   -1.5763 H         1 <1>         0.1234
     40 H18         4.4046    4.2502    0.4308 H         1 <1>         0.3359
@<TRIPOS>BOND
     1    1    6 ar
     2    1    2 ar
     3    1   23 1
     4    2    3 ar
     5    2   24 1
     6    3    4 ar
     7    3   25 1
     8    4    5 ar
     9    4    7 1
    10    5    6 ar
    11    5   26 1
    12    6   27 1
    13    7    8 2
    14    7   28 1
    15    8    9 1
    16    8   29 1
    17    9   10 1
    18    9   16 1
    19    9   22 1
    20   10   15 ar
    21   10   11 ar
    22   11   12 ar
    23   11   30 1
    24   12   13 ar
    25   12   31 1
    26   13   14 ar
    27   13   32 1
    28   14   15 ar
    29   14   33 1
    30   15   34 1
    31   16   21 ar
    32   16   17 ar
    33   17   18 ar
    34   17   35 1
    35   18   19 ar
    36   18   36 1
    37   19   20 ar
    38   19   37 1
    39   20   21 ar
    40   20   38 1
    41   21   39 1
    42   22   40 1
@<TRIPOS>Similarity
2.0000
@<TRIPOS>ShapeSim
1.0000
@<TRIPOS>PharmSim
1.0000
# END
# Name:		ZINC01719019
# Created and modified by SHAFTS on Mon Jun 23 14:53:19 2014

# 

@<TRIPOS>MOLECULE
ZINC01719019
   40    42     0
SMALL
USER_CHARGE


@<TRIPOS>ATOM
      1 C1          1.3900    4.6782    6.3885 C.ar      1 <1>        -0.1088
      2 C2          2.7082    4.3178    6.1731 C.ar      1 <1>        -0.1054
      3 C3          3.1673    4.1047    4.8896 C.ar      1 <1>        -0.0970
      4 C4          2.2988    4.2530    3.8076 C.ar      1 <1>        -0.0949
      5 C5          0.9718    4.6218    4.0313 C.ar      1 <1>        -0.0988
      6 C6          0.5237    4.8264    5.3201 C.ar      1 <1>        -0.1066
      7 C7          2.7839    4.0262    2.4299 C.2       1 <1>        -0.0929
      8 C8          1.9564    4.1678    1.4040 C.2       1 <1>        -0.0753
      9 C9          2.4510    3.9366   -0.0006 C.3       1 <1>         0.0278
     10 C10         1.6589    2.8225   -0.6351 C.ar      1 <1>        -0.0583
     11 C11         2.3097    1.8220   -1.3324 C.ar      1 <1>        -0.0844
     12 C12         1.5832    0.8001   -1.9143 C.ar      1 <1>        -0.1030
     13 C13         0.2054    0.7816   -1.8036 C.ar      1 <1>        -0.1086
     14 C14        -0.4450    1.7793   -1.1018 C.ar      1 <1>        -0.1056
     15 C15         0.2816    2.8010   -0.5194 C.ar      1 <1>        -0.0897
     16 C16         2.2794    5.1977   -0.8076 C.ar      1 <1>        -0.0682
     17 C17         1.0696    5.8664   -0.7961 C.ar      1 <1>        -0.0952
     18 C18         0.9137    7.0258   -1.5325 C.ar      1 <1>        -0.1060
     19 C19         1.9643    7.5108   -2.2887 C.ar      1 <1>        -0.1083
     20 C20         3.1725    6.8393   -2.3043 C.ar      1 <1>        -0.1059
     21 C21         3.3300    5.6827   -1.5638 C.ar      1 <1>        -0.0940
     22 O1          3.8338    3.5779    0.0343 O.3       1 <1>        -0.4590
     23 H1          1.0357    4.8442    7.3951 H         1 <1>         0.1143
     24 H2          3.3794    4.2033    7.0114 H         1 <1>         0.1160
     25 H3          4.1966    3.8233    4.7227 H         1 <1>         0.1212
     26 H4          0.2958    4.7426    3.1977 H         1 <1>         0.1175
     27 H5         -0.5042    5.1077    5.4949 H         1 <1>         0.1153
     28 H6          3.8126    3.7450    2.2590 H         1 <1>         0.1235
     29 H7          0.9277    4.4490    1.5748 H         1 <1>         0.1150
     30 H8          3.3858    1.8388   -1.4227 H         1 <1>         0.1308
     31 H9          2.0916    0.0185   -2.4594 H         1 <1>         0.1152
     32 H10        -0.3626   -0.0144   -2.2620 H         1 <1>         0.1142
     33 H11        -1.5211    1.7626   -1.0117 H         1 <1>         0.1152
     34 H12        -0.2269    3.5825    0.0257 H         1 <1>         0.1175
     35 H13         0.2474    5.4850   -0.2088 H         1 <1>         0.1172
     36 H14        -0.0303    7.5503   -1.5206 H         1 <1>         0.1156
     37 H15         1.8412    8.4142   -2.8676 H         1 <1>         0.1146
     38 H16         3.9932    7.2180   -2.8954 H         1 <1>         0.1159
     39 H17         4.2738    5.1579   -1.5763 H         1 <1>         0.1234
     40 H18         4.4046    4.2502    0.4308 H         1 <1>         0.3359
@<TRIPOS>BOND
     1    1    6 ar
     2    1    2 ar
     3    1   23 1
     4    2    3 ar
     5    2   24 1
     6    3    4 ar
     7    3   25 1
     8    4    5 ar
     9    4    7 1
    10    5    6 ar
    11    5   26 1
    12    6   27 1
    13    7    8 2
    14    7   28 1
    15    8    9 1
    16    8   29 1
    17    9   10 1
    18    9   16 1
    19    9   22 1
    20   10   15 ar
    21   10   11 ar
    22   11   12 ar
    23   11   30 1
    24   12   13 ar
    25   12   31 1
    26   13   14 ar
    27   13   32 1
    28   14   15 ar
    29   14   33 1
    30   15   34 1
    31   16   21 ar
    32   16   17 ar
    33   17   18 ar
    34   17   35 1
    35   18   19 ar
    36   18   36 1
    37   19   20 ar
    38   19   37 1
    39   20   21 ar
    40   20   38 1
    41   21   39 1
    42   22   40 1
@<TRIPOS>Similarity
2.0000
@<TRIPOS>ShapeSim
1.0000
@<TRIPOS>PharmSim
1.0000
# END
# Name:		ZINC01719019
# Created and modified by SHAFTS on Mon Jun 23 14:53:19 2014

# 

@<TRIPOS>MOLECULE
ZINC01719019
   40    42     0
SMALL
USER_CHARGE


@<TRIPOS>ATOM
      1 C1          1.3900    4.6782    6.3885 C.ar      1 <1>        -0.1088
      2 C2          2.7082    4.3178    6.1731 C.ar      1 <1>        -0.1054
      3 C3          3.1673    4.1047    4.8896 C.ar      1 <1>        -0.0970
      4 C4          2.2988    4.2530    3.8076 C.ar      1 <1>        -0.0949
      5 C5          0.9718    4.6218    4.0313 C.ar      1 <1>        -0.0988
      6 C6          0.5237    4.8264    5.3201 C.ar      1 <1>        -0.1066
      7 C7          2.7839    4.0262    2.4299 C.2       1 <1>        -0.0929
      8 C8          1.9564    4.1678    1.4040 C.2       1 <1>        -0.0753
      9 C9          2.4510    3.9366   -0.0006 C.3       1 <1>         0.0278
     10 C10         1.6589    2.8225   -0.6351 C.ar      1 <1>        -0.0583
     11 C11         2.3097    1.8220   -1.3324 C.ar      1 <1>        -0.0844
     12 C12         1.5832    0.8001   -1.9143 C.ar      1 <1>        -0.1030
     13 C13         0.2054    0.7816   -1.8036 C.ar      1 <1>        -0.1086
     14 C14        -0.4450    1.7793   -1.1018 C.ar      1 <1>        -0.1056
     15 C15         0.2816    2.8010   -0.5194 C.ar      1 <1>        -0.0897
     16 C16         2.2794    5.1977   -0.8076 C.ar      1 <1>        -0.0682
     17 C17         1.0696    5.8664   -0.7961 C.ar      1 <1>        -0.0952
     18 C18         0.9137    7.0258   -1.5325 C.ar      1 <1>        -0.1060
     19 C19         1.9643    7.5108   -2.2887 C.ar      1 <1>        -0.1083
     20 C20         3.1725    6.8393   -2.3043 C.ar      1 <1>        -0.1059
     21 C21         3.3300    5.6827   -1.5638 C.ar      1 <1>        -0.0940
     22 O1          3.8338    3.5779    0.0343 O.3       1 <1>        -0.4590
     23 H1          1.0357    4.8442    7.3951 H         1 <1>         0.1143
     24 H2          3.3794    4.2033    7.0114 H         1 <1>         0.1160
     25 H3          4.1966    3.8233    4.7227 H         1 <1>         0.1212
     26 H4          0.2958    4.7426    3.1977 H         1 <1>         0.1175
     27 H5         -0.5042    5.1077    5.4949 H         1 <1>         0.1153
     28 H6          3.8126    3.7450    2.2590 H         1 <1>         0.1235
     29 H7          0.9277    4.4490    1.5748 H         1 <1>         0.1150
     30 H8          3.3858    1.8388   -1.4227 H         1 <1>         0.1308
     31 H9          2.0916    0.0185   -2.4594 H         1 <1>         0.1152
     32 H10        -0.3626   -0.0144   -2.2620 H         1 <1>         0.1142
     33 H11        -1.5211    1.7626   -1.0117 H         1 <1>         0.1152
     34 H12        -0.2269    3.5825    0.0257 H         1 <1>         0.1175
     35 H13         0.2474    5.4850   -0.2088 H         1 <1>         0.1172
     36 H14        -0.0303    7.5503   -1.5206 H         1 <1>         0.1156
     37 H15         1.8412    8.4142   -2.8676 H         1 <1>         0.1146
     38 H16         3.9932    7.2180   -2.8954 H         1 <1>         0.1159
     39 H17         4.2738    5.1579   -1.5763 H         1 <1>         0.1234
     40 H18         4.4046    4.2502    0.4308 H         1 <1>         0.3359
@<TRIPOS>BOND
     1    1    6 ar
     2    1    2 ar
     3    1   23 1
     4    2    3 ar
     5    2   24 1
     6    3    4 ar
     7    3   25 1
     8    4    5 ar
     9    4    7 1
    10    5    6 ar
    11    5   26 1
    12    6   27 1
    13    7    8 2
    14    7   28 1
    15    8    9 1
    16    8   29 1
    17    9   10 1
    18    9   16 1
    19    9   22 1
    20   10   15 ar
    21   10   11 ar
    22   11   12 ar
    23   11   30 1
    24   12   13 ar
    25   12   31 1
    26   13   14 ar
    27   13   32 1
    28   14   15 ar
    29   14   33 1
    30   15   34 1
    31   16   21 ar
    32   16   17 ar
    33   17   18 ar
    34   17   35 1
    35   18   19 ar
    36   18   36 1
    37   19   20 ar
    38   19   37 1
    39   20   21 ar
    40   20   38 1
    41   21   39 1
    42   22   40 1
@<TRIPOS>Similarity
2.0000
@<TRIPOS>ShapeSim
1.0000
@<TRIPOS>PharmSim
1.0000
# END
# Name:		ZINC01719019
# Created and modified by SHAFTS on Mon Jun 23 14:53:19 2014

# 

@<TRIPOS>MOLECULE
ZINC01719019
   40    42     0
SMALL
USER_CHARGE


@<TRIPOS>ATOM
      1 C1          1.3900    4.6782    6.3885 C.ar      1 <1>        -0.1088
      2 C2          2.7082    4.3178    6.1731 C.ar      1 <1>        -0.1054
      3 C3          3.1673    4.1047    4.8896 C.ar      1 <1>        -0.0970
      4 C4          2.2988    4.2530    3.8076 C.ar      1 <1>        -0.0949
      5 C5          0.9718    4.6218    4.0313 C.ar      1 <1>        -0.0988
      6 C6          0.5237    4.8264    5.3201 C.ar      1 <1>        -0.1066
      7 C7          2.7839    4.0262    2.4299 C.2       1 <1>        -0.0929
      8 C8          1.9564    4.1678    1.4040 C.2       1 <1>        -0.0753
      9 C9          2.4510    3.9366   -0.0006 C.3       1 <1>         0.0278
     10 C10         1.6589    2.8225   -0.6351 C.ar      1 <1>        -0.0583
     11 C11         2.3097    1.8220   -1.3324 C.ar      1 <1>        -0.0844
     12 C12         1.5832    0.8001   -1.9143 C.ar      1 <1>        -0.1030
     13 C13         0.2054    0.7816   -1.8036 C.ar      1 <1>        -0.1086
     14 C14        -0.4450    1.7793   -1.1018 C.ar      1 <1>        -0.1056
     15 C15         0.2816    2.8010   -0.5194 C.ar      1 <1>        -0.0897
     16 C16         2.2794    5.1977   -0.8076 C.ar      1 <1>        -0.0682
     17 C17         1.0696    5.8664   -0.7961 C.ar      1 <1>        -0.0952
     18 C18         0.9137    7.0258   -1.5325 C.ar      1 <1>        -0.1060
     19 C19         1.9643    7.5108   -2.2887 C.ar      1 <1>        -0.1083
     20 C20         3.1725    6.8393   -2.3043 C.ar      1 <1>        -0.1059
     21 C21         3.3300    5.6827   -1.5638 C.ar      1 <1>        -0.0940
     22 O1          3.8338    3.5779    0.0343 O.3       1 <1>        -0.4590
     23 H1          1.0357    4.8442    7.3951 H         1 <1>         0.1143
     24 H2          3.3794    4.2033    7.0114 H         1 <1>         0.1160
     25 H3          4.1966    3.8233    4.7227 H         1 <1>         0.1212
     26 H4          0.2958    4.7426    3.1977 H         1 <1>         0.1175
     27 H5         -0.5042    5.1077    5.4949 H         1 <1>         0.1153
     28 H6          3.8126    3.7450    2.2590 H         1 <1>         0.1235
     29 H7          0.9277    4.4490    1.5748 H         1 <1>         0.1150
     30 H8          3.3858    1.8388   -1.4227 H         1 <1>         0.1308
     31 H9          2.0916    0.0185   -2.4594 H         1 <1>         0.1152
     32 H10        -0.3626   -0.0144   -2.2620 H         1 <1>         0.1142
     33 H11        -1.5211    1.7626   -1.0117 H         1 <1>         0.1152
     34 H12        -0.2269    3.5825    0.0257 H         1 <1>         0.1175
     35 H13         0.2474    5.4850   -0.2088 H         1 <1>         0.1172
     36 H14        -0.0303    7.5503   -1.5206 H         1 <1>         0.1156
     37 H15         1.8412    8.4142   -2.8676 H         1 <1>         0.1146
     38 H16         3.9932    7.2180   -2.8954 H         1 <1>         0.1159
     39 H17         4.2738    5.1579   -1.5763 H         1 <1>         0.1234
     40 H18         4.4046    4.2502    0.4308 H         1 <1>         0.3359
@<TRIPOS>BOND
     1    1    6 ar
     2    1    2 ar
     3    1   23 1
     4    2    3 ar
     5    2   24 1
     6    3    4 ar
     7    3   25 1
     8    4    5 ar
     9    4    7 1
    10    5    6 ar
    11    5   26 1
    12    6   27 1
    13    7    8 2
    14    7   28 1
    15    8    9 1
    16    8   29 1
    17    9   10 1
    18    9   16 1
    19    9   22 1
    20   10   15 ar
    21   10   11 ar
    22   11   12 ar
    23   11   30 1
    24   12   13 ar
    25   12   31 1
    26   13   14 ar
    27   13   32 1
    28   14   15 ar
    29   14   33 1
    30   15   34 1
    31   16   21 ar
    32   16   17 ar
    33   17   18 ar
    34   17   35 1
    35   18   19 ar
    36   18   36 1
    37   19   20 ar
    38   19   37 1
    39   20   21 ar
    40   20   38 1
    41   21   39 1
    42   22   40 1
@<TRIPOS>Similarity
2.0000
@<TRIPOS>ShapeSim
1.0000
@<TRIPOS>PharmSim
1.0000
# END
# Name:		ZINC01719019
# Created and modified by SHAFTS on Mon Jun 23 14:53:19 2014

# 

@<TRIPOS>MOLECULE
ZINC01719019
   40    42     0
SMALL
USER_CHARGE


@<TRIPOS>ATOM
      1 C1          1.3900    4.6782    6.3885 C.ar      1 <1>        -0.1088
      2 C2          2.7082    4.3178    6.1731 C.ar      1 <1>        -0.1054
      3 C3          3.1673    4.1047    4.8896 C.ar      1 <1>        -0.0970
      4 C4          2.2988    4.2530    3.8076 C.ar      1 <1>        -0.0949
      5 C5          0.9718    4.6218    4.0313 C.ar      1 <1>        -0.0988
      6 C6          0.5237    4.8264    5.3201 C.ar      1 <1>        -0.1066
      7 C7          2.7839    4.0262    2.4299 C.2       1 <1>        -0.0929
      8 C8          1.9564    4.1678    1.4040 C.2       1 <1>        -0.0753
      9 C9          2.4510    3.9366   -0.0006 C.3       1 <1>         0.0278
     10 C10         1.6589    2.8225   -0.6351 C.ar      1 <1>        -0.0583
     11 C11         2.3097    1.8220   -1.3324 C.ar      1 <1>        -0.0844
     12 C12         1.5832    0.8001   -1.9143 C.ar      1 <1>        -0.1030
     13 C13         0.2054    0.7816   -1.8036 C.ar      1 <1>        -0.1086
     14 C14        -0.4450    1.7793   -1.1018 C.ar      1 <1>        -0.1056
     15 C15         0.2816    2.8010   -0.5194 C.ar      1 <1>        -0.0897
     16 C16         2.2794    5.1977   -0.8076 C.ar      1 <1>        -0.0682
     17 C17         1.0696    5.8664   -0.7961 C.ar      1 <1>        -0.0952
     18 C18         0.9137    7.0258   -1.5325 C.ar      1 <1>        -0.1060
     19 C19         1.9643    7.5108   -2.2887 C.ar      1 <1>        -0.1083
     20 C20         3.1725    6.8393   -2.3043 C.ar      1 <1>        -0.1059
     21 C21         3.3300    5.6827   -1.5638 C.ar      1 <1>        -0.0940
     22 O1          3.8338    3.5779    0.0343 O.3       1 <1>        -0.4590
     23 H1          1.0357    4.8442    7.3951 H         1 <1>         0.1143
     24 H2          3.3794    4.2033    7.0114 H         1 <1>         0.1160
     25 H3          4.1966    3.8233    4.7227 H         1 <1>         0.1212
     26 H4          0.2958    4.7426    3.1977 H         1 <1>         0.1175
     27 H5         -0.5042    5.1077    5.4949 H         1 <1>         0.1153
     28 H6          3.8126    3.7450    2.2590 H         1 <1>         0.1235
     29 H7          0.9277    4.4490    1.5748 H         1 <1>         0.1150
     30 H8          3.3858    1.8388   -1.4227 H         1 <1>         0.1308
     31 H9          2.0916    0.0185   -2.4594 H         1 <1>         0.1152
     32 H10        -0.3626   -0.0144   -2.2620 H         1 <1>         0.1142
     33 H11        -1.5211    1.7626   -1.0117 H         1 <1>         0.1152
     34 H12        -0.2269    3.5825    0.0257 H         1 <1>         0.1175
     35 H13         0.2474    5.4850   -0.2088 H         1 <1>         0.1172
     36 H14        -0.0303    7.5503   -1.5206 H         1 <1>         0.1156
     37 H15         1.8412    8.4142   -2.8676 H         1 <1>         0.1146
     38 H16         3.9932    7.2180   -2.8954 H         1 <1>         0.1159
     39 H17         4.2738    5.1579   -1.5763 H         1 <1>         0.1234
     40 H18         4.4046    4.2502    0.4308 H         1 <1>         0.3359
@<TRIPOS>BOND
     1    1    6 ar
     2    1    2 ar
     3    1   23 1
     4    2    3 ar
     5    2   24 1
     6    3    4 ar
     7    3   25 1
     8    4    5 ar
     9    4    7 1
    10    5    6 ar
    11    5   26 1
    12    6   27 1
    13    7    8 2
    14    7   28 1
    15    8    9 1
    16    8   29 1
    17    9   10 1
    18    9   16 1
    19    9   22 1
    20   10   15 ar
    21   10   11 ar
    22   11   12 ar
    23   11   30 1
    24   12   13 ar
    25   12   31 1
    26   13   14 ar
    27   13   32 1
    28   14   15 ar
    29   14   33 1
    30   15   34 1
    31   16   21 ar
    32   16   17 ar
    33   17   18 ar
    34   17   35 1
    35   18   19 ar
    36   18   36 1
    37   19   20 ar
    38   19   37 1
    39   20   21 ar
    40   20   38 1
    41   21   39 1
    42   22   40 1
@<TRIPOS>Similarity
2.0000
@<TRIPOS>ShapeSim
1.0000
@<TRIPOS>PharmSim
1.0000
# END
# Name:		ZINC01719019
# Created and modified by SHAFTS on Mon Jun 23 14:53:19 2014

# 

@<TRIPOS>MOLECULE
ZINC01719019
   40    42     0
SMALL
USER_CHARGE


@<TRIPOS>ATOM
      1 C1          1.3900    4.6782    6.3885 C.ar      1 <1>        -0.1088
      2 C2          2.7082    4.3178    6.1731 C.ar      1 <1>        -0.1054
      3 C3          3.1673    4.1047    4.8896 C.ar      1 <1>        -0.0970
      4 C4          2.2988    4.2530    3.8076 C.ar      1 <1>        -0.0949
      5 C5          0.9718    4.6218    4.0313 C.ar      1 <1>        -0.0988
      6 C6          0.5237    4.8264    5.3201 C.ar      1 <1>        -0.1066
      7 C7          2.7839    4.0262    2.4299 C.2       1 <1>        -0.0929
      8 C8          1.9564    4.1678    1.4040 C.2       1 <1>        -0.0753
      9 C9          2.4510    3.9366   -0.0006 C.3       1 <1>         0.0278
     10 C10         1.6589    2.8225   -0.6351 C.ar      1 <1>        -0.0583
     11 C11         2.3097    1.8220   -1.3324 C.ar      1 <1>        -0.0844
     12 C12         1.5832    0.8001   -1.9143 C.ar      1 <1>        -0.1030
     13 C13         0.2054    0.7816   -1.8036 C.ar      1 <1>        -0.1086
     14 C14        -0.4450    1.7793   -1.1018 C.ar      1 <1>        -0.1056
     15 C15         0.2816    2.8010   -0.5194 C.ar      1 <1>        -0.0897
     16 C16         2.2794    5.1977   -0.8076 C.ar      1 <1>        -0.0682
     17 C17         1.0696    5.8664   -0.7961 C.ar      1 <1>        -0.0952
     18 C18         0.9137    7.0258   -1.5325 C.ar      1 <1>        -0.1060
     19 C19         1.9643    7.5108   -2.2887 C.ar      1 <1>        -0.1083
     20 C20         3.1725    6.8393   -2.3043 C.ar      1 <1>        -0.1059
     21 C21         3.3300    5.6827   -1.5638 C.ar      1 <1>        -0.0940
     22 O1          3.8338    3.5779    0.0343 O.3       1 <1>        -0.4590
     23 H1          1.0357    4.8442    7.3951 H         1 <1>         0.1143
     24 H2          3.3794    4.2033    7.0114 H         1 <1>         0.1160
     25 H3          4.1966    3.8233    4.7227 H         1 <1>         0.1212
     26 H4          0.2958    4.7426    3.1977 H         1 <1>         0.1175
     27 H5         -0.5042    5.1077    5.4949 H         1 <1>         0.1153
     28 H6          3.8126    3.7450    2.2590 H         1 <1>         0.1235
     29 H7          0.9277    4.4490    1.5748 H         1 <1>         0.1150
     30 H8          3.3858    1.8388   -1.4227 H         1 <1>         0.1308
     31 H9          2.0916    0.0185   -2.4594 H         1 <1>         0.1152
     32 H10        -0.3626   -0.0144   -2.2620 H         1 <1>         0.1142
     33 H11        -1.5211    1.7626   -1.0117 H         1 <1>         0.1152
     34 H12        -0.2269    3.5825    0.0257 H         1 <1>         0.1175
     35 H13         0.2474    5.4850   -0.2088 H         1 <1>         0.1172
     36 H14        -0.0303    7.5503   -1.5206 H         1 <1>         0.1156
     37 H15         1.8412    8.4142   -2.8676 H         1 <1>         0.1146
     38 H16         3.9932    7.2180   -2.8954 H         1 <1>         0.1159
     39 H17         4.2738    5.1579   -1.5763 H         1 <1>         0.1234
     40 H18         4.4046    4.2502    0.4308 H         1 <1>         0.3359
@<TRIPOS>BOND
     1    1    6 ar
     2    1    2 ar
     3    1   23 1
     4    2    3 ar
     5    2   24 1
     6    3    4 ar
     7    3   25 1
     8    4    5 ar
     9    4    7 1
    10    5    6 ar
    11    5   26 1
    12    6   27 1
    13    7    8 2
    14    7   28 1
    15    8    9 1
    16    8   29 1
    17    9   10 1
    18    9   16 1
    19    9   22 1
    20   10   15 ar
    21   10   11 ar
    22   11   12 ar
    23   11   30 1
    24   12   13 ar
    25   12   31 1
    26   13   14 ar
    27   13   32 1
    28   14   15 ar
    29   14   33 1
    30   15   34 1
    31   16   21 ar
    32   16   17 ar
    33   17   18 ar
    34   17   35 1
    35   18   19 ar
    36   18   36 1
    37   19   20 ar
    38   19   37 1
    39   20   21 ar
    40   20   38 1
    41   21   39 1
    42   22   40 1
@<TRIPOS>Similarity
2.0000
@<TRIPOS>ShapeSim
1.0000
@<TRIPOS>PharmSim
1.0000
# END
# Name:		ZINC01719019
# Created and modified by SHAFTS on Mon Jun 23 14:53:19 2014

# 

@<TRIPOS>MOLECULE
ZINC01719019
   40    42     0
SMALL
USER_CHARGE


@<TRIPOS>ATOM
      1 C1          1.3900    4.6782    6.3885 C.ar      1 <1>        -0.1088
      2 C2          2.7082    4.3178    6.1731 C.ar      1 <1>        -0.1054
      3 C3          3.1673    4.1047    4.8896 C.ar      1 <1>        -0.0970
      4 C4          2.2988    4.2530    3.8076 C.ar      1 <1>        -0.0949
      5 C5          0.9718    4.6218    4.0313 C.ar      1 <1>        -0.0988
      6 C6          0.5237    4.8264    5.3201 C.ar      1 <1>        -0.1066
      7 C7          2.7839    4.0262    2.4299 C.2       1 <1>        -0.0929
      8 C8          1.9564    4.1678    1.4040 C.2       1 <1>        -0.0753
      9 C9          2.4510    3.9366   -0.0006 C.3       1 <1>         0.0278
     10 C10         1.6589    2.8225   -0.6351 C.ar      1 <1>        -0.0583
     11 C11         2.3097    1.8220   -1.3324 C.ar      1 <1>        -0.0844
     12 C12         1.5832    0.8001   -1.9143 C.ar      1 <1>        -0.1030
     13 C13         0.2054    0.7816   -1.8036 C.ar      1 <1>        -0.1086
     14 C14        -0.4450    1.7793   -1.1018 C.ar      1 <1>        -0.1056
     15 C15         0.2816    2.8010   -0.5194 C.ar      1 <1>        -0.0897
     16 C16         2.2794    5.1977   -0.8076 C.ar      1 <1>        -0.0682
     17 C17         1.0696    5.8664   -0.7961 C.ar      1 <1>        -0.0952
     18 C18         0.9137    7.0258   -1.5325 C.ar      1 <1>        -0.1060
     19 C19         1.9643    7.5108   -2.2887 C.ar      1 <1>        -0.1083
     20 C20         3.1725    6.8393   -2.3043 C.ar      1 <1>        -0.1059
     21 C21         3.3300    5.6827   -1.5638 C.ar      1 <1>        -0.0940
     22 O1          3.8338    3.5779    0.0343 O.3       1 <1>        -0.4590
     23 H1          1.0357    4.8442    7.3951 H         1 <1>         0.1143
     24 H2          3.3794    4.2033    7.0114 H         1 <1>         0.1160
     25 H3          4.1966    3.8233    4.7227 H         1 <1>         0.1212
     26 H4          0.2958    4.7426    3.1977 H         1 <1>         0.1175
     27 H5         -0.5042    5.1077    5.4949 H         1 <1>         0.1153
     28 H6          3.8126    3.7450    2.2590 H         1 <1>         0.1235
     29 H7          0.9277    4.4490    1.5748 H         1 <1>         0.1150
     30 H8          3.3858    1.8388   -1.4227 H         1 <1>         0.1308
     31 H9          2.0916    0.0185   -2.4594 H         1 <1>         0.1152
     32 H10        -0.3626   -0.0144   -2.2620 H         1 <1>         0.1142
     33 H11        -1.5211    1.7626   -1.0117 H         1 <1>         0.1152
     34 H12        -0.2269    3.5825    0.0257 H         1 <1>         0.1175
     35 H13         0.2474    5.4850   -0.2088 H         1 <1>         0.1172
     36 H14        -0.0303    7.5503   -1.5206 H         1 <1>         0.1156
     37 H15         1.8412    8.4142   -2.8676 H         1 <1>         0.1146
     38 H16         3.9932    7.2180   -2.8954 H         1 <1>         0.1159
     39 H17         4.2738    5.1579   -1.5763 H         1 <1>         0.1234
     40 H18         4.4046    4.2502    0.4308 H         1 <1>         0.3359
@<TRIPOS>BOND
     1    1    6 ar
     2    1    2 ar
     3    1   23 1
     4    2    3 ar
     5    2   24 1
     6    3    4 ar
     7    3   25 1
     8    4    5 ar
     9    4    7 1
    10    5    6 ar
    11    5   26 1
    12    6   27 1
    13    7    8 2
    14    7   28 1
    15    8    9 1
    16    8   29 1
    17    9   10 1
    18    9   16 1
    19    9   22 1
    20   10   15 ar
    21   10   11 ar
    22   11   12 ar
    23   11   30 1
    24   12   13 ar
    25   12   31 1
    26   13   14 ar
    27   13   32 1
    28   14   15 ar
    29   14   33 1
    30   15   34 1
    31   16   21 ar
    32   16   17 ar
    33   17   18 ar
    34   17   35 1
    35   18   19 ar
    36   18   36 1
    37   19   20 ar
    38   19   37 1
    39   20   21 ar
    40   20   38 1
    41   21   39 1
    42   22   40 1
@<TRIPOS>Similarity
2.0000
@<TRIPOS>ShapeSim
1.0000
@<TRIPOS>PharmSim
1.0000
# END
# Name:		ZINC01719019
# Created and modified by SHAFTS on Mon Jun 23 14:53:19 2014

# 

@<TRIPOS>MOLECULE
ZINC01719019
   40    42     0
SMALL
USER_CHARGE


@<TRIPOS>ATOM
      1 C1          1.3900    4.6782    6.3885 C.ar      1 <1>        -0.1088
      2 C2          2.7082    4.3178    6.1731 C.ar      1 <1>        -0.1054
      3 C3          3.1673    4.1047    4.8896 C.ar      1 <1>        -0.0970
      4 C4          2.2988    4.2530    3.8076 C.ar      1 <1>        -0.0949
      5 C5          0.9718    4.6218    4.0313 C.ar      1 <1>        -0.0988
      6 C6          0.5237    4.8264    5.3201 C.ar      1 <1>        -0.1066
      7 C7          2.7839    4.0262    2.4299 C.2       1 <1>        -0.0929
      8 C8          1.9564    4.1678    1.4040 C.2       1 <1>        -0.0753
      9 C9          2.4510    3.9366   -0.0006 C.3       1 <1>         0.0278
     10 C10         1.6589    2.8225   -0.6351 C.ar      1 <1>        -0.0583
     11 C11         2.3097    1.8220   -1.3324 C.ar      1 <1>        -0.0844
     12 C12         1.5832    0.8001   -1.9143 C.ar      1 <1>        -0.1030
     13 C13         0.2054    0.7816   -1.8036 C.ar      1 <1>        -0.1086
     14 C14        -0.4450    1.7793   -1.1018 C.ar      1 <1>        -0.1056
     15 C15         0.2816    2.8010   -0.5194 C.ar      1 <1>        -0.0897
     16 C16         2.2794    5.1977   -0.8076 C.ar      1 <1>        -0.0682
     17 C17         1.0696    5.8664   -0.7961 C.ar      1 <1>        -0.0952
     18 C18         0.9137    7.0258   -1.5325 C.ar      1 <1>        -0.1060
     19 C19         1.9643    7.5108   -2.2887 C.ar      1 <1>        -0.1083
     20 C20         3.1725    6.8393   -2.3043 C.ar      1 <1>        -0.1059
     21 C21         3.3300    5.6827   -1.5638 C.ar      1 <1>        -0.0940
     22 O1          3.8338    3.5779    0.0343 O.3       1 <1>        -0.4590
     23 H1          1.0357    4.8442    7.3951 H         1 <1>         0.1143
     24 H2          3.3794    4.2033    7.0114 H         1 <1>         0.1160
     25 H3          4.1966    3.8233    4.7227 H         1 <1>         0.1212
     26 H4          0.2958    4.7426    3.1977 H         1 <1>         0.1175
     27 H5         -0.5042    5.1077    5.4949 H         1 <1>         0.1153
     28 H6          3.8126    3.7450    2.2590 H         1 <1>         0.1235
     29 H7          0.9277    4.4490    1.5748 H         1 <1>         0.1150
     30 H8          3.3858    1.8388   -1.4227 H         1 <1>         0.1308
     31 H9          2.0916    0.0185   -2.4594 H         1 <1>         0.1152
     32 H10        -0.3626   -0.0144   -2.2620 H         1 <1>         0.1142
     33 H11        -1.5211    1.7626   -1.0117 H         1 <1>         0.1152
     34 H12        -0.2269    3.5825    0.0257 H         1 <1>         0.1175
     35 H13         0.2474    5.4850   -0.2088 H         1 <1>         0.1172
     36 H14        -0.0303    7.5503   -1.5206 H         1 <1>         0.1156
     37 H15         1.8412    8.4142   -2.8676 H         1 <1>         0.1146
     38 H16         3.9932    7.2180   -2.8954 H         1 <1>         0.1159
     39 H17         4.2738    5.1579   -1.5763 H         1 <1>         0.1234
     40 H18         4.4046    4.2502    0.4308 H         1 <1>         0.3359
@<TRIPOS>BOND
     1    1    6 ar
     2    1    2 ar
     3    1   23 1
     4    2    3 ar
     5    2   24 1
     6    3    4 ar
     7    3   25 1
     8    4    5 ar
     9    4    7 1
    10    5    6 ar
    11    5   26 1
    12    6   27 1
    13    7    8 2
    14    7   28 1
    15    8    9 1
    16    8   29 1
    17    9   10 1
    18    9   16 1
    19    9   22 1
    20   10   15 ar
    21   10   11 ar
    22   11   12 ar
    23   11   30 1
    24   12   13 ar
    25   12   31 1
    26   13   14 ar
    27   13   32 1
    28   14   15 ar
    29   14   33 1
    30   15   34 1
    31   16   21 ar
    32   16   17 ar
    33   17   18 ar
    34   17   35 1
    35   18   19 ar
    36   18   36 1
    37   19   20 ar
    38   19   37 1
    39   20   21 ar
    40   20   38 1
    41   21   39 1
    42   22   40 1
@<TRIPOS>Similarity
2.0000
@<TRIPOS>ShapeSim
1.0000
@<TRIPOS>PharmSim
1.0000
# END
# Name:		ZINC01719019
# Created and modified by SHAFTS on Mon Jun 23 14:53:19 2014

# 

@<TRIPOS>MOLECULE
ZINC01719019
   40    42     0
SMALL
USER_CHARGE


@<TRIPOS>ATOM
      1 C1          1.3900    4.6782    6.3885 C.ar      1 <1>        -0.1088
      2 C2          2.7082    4.3178    6.1731 C.ar      1 <1>        -0.1054
      3 C3          3.1673    4.1047    4.8896 C.ar      1 <1>        -0.0970
      4 C4          2.2988    4.2530    3.8076 C.ar      1 <1>        -0.0949
      5 C5          0.9718    4.6218    4.0313 C.ar      1 <1>        -0.0988
      6 C6          0.5237    4.8264    5.3201 C.ar      1 <1>        -0.1066
      7 C7          2.7839    4.0262    2.4299 C.2       1 <1>        -0.0929
      8 C8          1.9564    4.1678    1.4040 C.2       1 <1>        -0.0753
      9 C9          2.4510    3.9366   -0.0006 C.3       1 <1>         0.0278
     10 C10         1.6589    2.8225   -0.6351 C.ar      1 <1>        -0.0583
     11 C11         2.3097    1.8220   -1.3324 C.ar      1 <1>        -0.0844
     12 C12         1.5832    0.8001   -1.9143 C.ar      1 <1>        -0.1030
     13 C13         0.2054    0.7816   -1.8036 C.ar      1 <1>        -0.1086
     14 C14        -0.4450    1.7793   -1.1018 C.ar      1 <1>        -0.1056
     15 C15         0.2816    2.8010   -0.5194 C.ar      1 <1>        -0.0897
     16 C16         2.2794    5.1977   -0.8076 C.ar      1 <1>        -0.0682
     17 C17         1.0696    5.8664   -0.7961 C.ar      1 <1>        -0.0952
     18 C18         0.9137    7.0258   -1.5325 C.ar      1 <1>        -0.1060
     19 C19         1.9643    7.5108   -2.2887 C.ar      1 <1>        -0.1083
     20 C20         3.1725    6.8393   -2.3043 C.ar      1 <1>        -0.1059
     21 C21         3.3300    5.6827   -1.5638 C.ar      1 <1>        -0.0940
     22 O1          3.8338    3.5779    0.0343 O.3       1 <1>        -0.4590
     23 H1          1.0357    4.8442    7.3951 H         1 <1>         0.1143
     24 H2          3.3794    4.2033    7.0114 H         1 <1>         0.1160
     25 H3          4.1966    3.8233    4.7227 H         1 <1>         0.1212
     26 H4          0.2958    4.7426    3.1977 H         1 <1>         0.1175
     27 H5         -0.5042    5.1077    5.4949 H         1 <1>         0.1153
     28 H6          3.8126    3.7450    2.2590 H         1 <1>         0.1235
     29 H7          0.9277    4.4490    1.5748 H         1 <1>         0.1150
     30 H8          3.3858    1.8388   -1.4227 H         1 <1>         0.1308
     31 H9          2.0916    0.0185   -2.4594 H         1 <1>         0.1152
     32 H10        -0.3626   -0.0144   -2.2620 H         1 <1>         0.1142
     33 H11        -1.5211    1.7626   -1.0117 H         1 <1>         0.1152
     34 H12        -0.2269    3.5825    0.0257 H         1 <1>         0.1175
     35 H13         0.2474    5.4850   -0.2088 H         1 <1>         0.1172
     36 H14        -0.0303    7.5503   -1.5206 H         1 <1>         0.1156
     37 H15         1.8412    8.4142   -2.8676 H         1 <1>         0.1146
     38 H16         3.9932    7.2180   -2.8954 H         1 <1>         0.1159
     39 H17         4.2738    5.1579   -1.5763 H         1 <1>         0.1234
     40 H18         4.4046    4.2502    0.4308 H         1 <1>         0.3359
@<TRIPOS>BOND
     1    1    6 ar
     2    1    2 ar
     3    1   23 1
     4    2    3 ar
     5    2   24 1
     6    3    4 ar
     7    3   25 1
     8    4    5 ar
     9    4    7 1
    10    5    6 ar
    11    5   26 1
    12    6   27 1
    13    7    8 2
    14    7   28 1
    15    8    9 1
    16    8   29 1
    17    9   10 1
    18    9   16 1
    19    9   22 1
    20   10   15 ar
    21   10   11 ar
    22   11   12 ar
    23   11   30 1
    24   12   13 ar
    25   12   31 1
    26   13   14 ar
    27   13   32 1
    28   14   15 ar
    29   14   33 1
    30   15   34 1
    31   16   21 ar
    32   16   17 ar
    33   17   18 ar
    34   17   35 1
    35   18   19 ar
    36   18   36 1
    37   19   20 ar
    38   19   37 1
    39   20   21 ar
    40   20   38 1
    41   21   39 1
    42   22   40 1
@<TRIPOS>Similarity
2.0000
@<TRIPOS>ShapeSim
1.0000
@<TRIPOS>PharmSim
1.0000
# END
# Name:		ZINC01719019
# Created and modified by SHAFTS on Mon Jun 23 14:53:19 2014

# 

@<TRIPOS>MOLECULE
ZINC01719019
   40    42     0
SMALL
USER_CHARGE


@<TRIPOS>ATOM
      1 C1          1.3900    4.6782    6.3885 C.ar      1 <1>        -0.1088
      2 C2          2.7082    4.3178    6.1731 C.ar      1 <1>        -0.1054
      3 C3          3.1673    4.1047    4.8896 C.ar      1 <1>        -0.0970
      4 C4          2.2988    4.2530    3.8076 C.ar      1 <1>        -0.0949
      5 C5          0.9718    4.6218    4.0313 C.ar      1 <1>        -0.0988
      6 C6          0.5237    4.8264    5.3201 C.ar      1 <1>        -0.1066
      7 C7          2.7839    4.0262    2.4299 C.2       1 <1>        -0.0929
      8 C8          1.9564    4.1678    1.4040 C.2       1 <1>        -0.0753
      9 C9          2.4510    3.9366   -0.0006 C.3       1 <1>         0.0278
     10 C10         1.6589    2.8225   -0.6351 C.ar      1 <1>        -0.0583
     11 C11         2.3097    1.8220   -1.3324 C.ar      1 <1>        -0.0844
     12 C12         1.5832    0.8001   -1.9143 C.ar      1 <1>        -0.1030
     13 C13         0.2054    0.7816   -1.8036 C.ar      1 <1>        -0.1086
     14 C14        -0.4450    1.7793   -1.1018 C.ar      1 <1>        -0.1056
     15 C15         0.2816    2.8010   -0.5194 C.ar      1 <1>        -0.0897
     16 C16         2.2794    5.1977   -0.8076 C.ar      1 <1>        -0.0682
     17 C17         1.0696    5.8664   -0.7961 C.ar      1 <1>        -0.0952
     18 C18         0.9137    7.0258   -1.5325 C.ar      1 <1>        -0.1060
     19 C19         1.9643    7.5108   -2.2887 C.ar      1 <1>        -0.1083
     20 C20         3.1725    6.8393   -2.3043 C.ar      1 <1>        -0.1059
     21 C21         3.3300    5.6827   -1.5638 C.ar      1 <1>        -0.0940
     22 O1          3.8338    3.5779    0.0343 O.3       1 <1>        -0.4590
     23 H1          1.0357    4.8442    7.3951 H         1 <1>         0.1143
     24 H2          3.3794    4.2033    7.0114 H         1 <1>         0.1160
     25 H3          4.1966    3.8233    4.7227 H         1 <1>         0.1212
     26 H4          0.2958    4.7426    3.1977 H         1 <1>         0.1175
     27 H5         -0.5042    5.1077    5.4949 H         1 <1>         0.1153
     28 H6          3.8126    3.7450    2.2590 H         1 <1>         0.1235
     29 H7          0.9277    4.4490    1.5748 H         1 <1>         0.1150
     30 H8          3.3858    1.8388   -1.4227 H         1 <1>         0.1308
     31 H9          2.0916    0.0185   -2.4594 H         1 <1>         0.1152
     32 H10        -0.3626   -0.0144   -2.2620 H         1 <1>         0.1142
     33 H11        -1.5211    1.7626   -1.0117 H         1 <1>         0.1152
     34 H12        -0.2269    3.5825    0.0257 H         1 <1>         0.1175
     35 H13         0.2474    5.4850   -0.2088 H         1 <1>         0.1172
     36 H14        -0.0303    7.5503   -1.5206 H         1 <1>         0.1156
     37 H15         1.8412    8.4142   -2.8676 H         1 <1>         0.1146
     38 H16         3.9932    7.2180   -2.8954 H         1 <1>         0.1159
     39 H17         4.2738    5.1579   -1.5763 H         1 <1>         0.1234
     40 H18         4.4046    4.2502    0.4308 H         1 <1>         0.3359
@<TRIPOS>BOND
     1    1    6 ar
     2    1    2 ar
     3    1   23 1
     4    2    3 ar
     5    2   24 1
     6    3    4 ar
     7    3   25 1
     8    4    5 ar
     9    4    7 1
    10    5    6 ar
    11    5   26 1
    12    6   27 1
    13    7    8 2
    14    7   28 1
    15    8    9 1
    16    8   29 1
    17    9   10 1
    18    9   16 1
    19    9   22 1
    20   10   15 ar
    21   10   11 ar
    22   11   12 ar
    23   11   30 1
    24   12   13 ar
    25   12   31 1
    26   13   14 ar
    27   13   32 1
    28   14   15 ar
    29   14   33 1
    30   15   34 1
    31   16   21 ar
    32   16   17 ar
    33   17   18 ar
    34   17   35 1
    35   18   19 ar
    36   18   36 1
    37   19   20 ar
    38   19   37 1
    39   20   21 ar
    40   20   38 1
    41   21   39 1
    42   22   40 1
@<TRIPOS>Similarity
2.0000
@<TRIPOS>ShapeSim
1.0000
@<TRIPOS>PharmSim
1.0000
# END
# Name:		ZINC01719019
# Created and modified by SHAFTS on Mon Jun 23 14:53:19 2014

# 

@<TRIPOS>MOLECULE
ZINC01719019
   40    42     0
SMALL
USER_CHARGE


@<TRIPOS>ATOM
      1 C1          1.3900    4.6782    6.3885 C.ar      1 <1>        -0.1088
      2 C2          2.7082    4.3178    6.1731 C.ar      1 <1>        -0.1054
      3 C3          3.1673    4.1047    4.8896 C.ar      1 <1>        -0.0970
      4 C4          2.2988    4.2530    3.8076 C.ar      1 <1>        -0.0949
      5 C5          0.9718    4.6218    4.0313 C.ar      1 <1>        -0.0988
      6 C6          0.5237    4.8264    5.3201 C.ar      1 <1>        -0.1066
      7 C7          2.7839    4.0262    2.4299 C.2       1 <1>        -0.0929
      8 C8          1.9564    4.1678    1.4040 C.2       1 <1>        -0.0753
      9 C9          2.4510    3.9366   -0.0006 C.3       1 <1>         0.0278
     10 C10         1.6589    2.8225   -0.6351 C.ar      1 <1>        -0.0583
     11 C11         2.3097    1.8220   -1.3324 C.ar      1 <1>        -0.0844
     12 C12         1.5832    0.8001   -1.9143 C.ar      1 <1>        -0.1030
     13 C13         0.2054    0.7816   -1.8036 C.ar      1 <1>        -0.1086
     14 C14        -0.4450    1.7793   -1.1018 C.ar      1 <1>        -0.1056
     15 C15         0.2816    2.8010   -0.5194 C.ar      1 <1>        -0.0897
     16 C16         2.2794    5.1977   -0.8076 C.ar      1 <1>        -0.0682
     17 C17         1.0696    5.8664   -0.7961 C.ar      1 <1>        -0.0952
     18 C18         0.9137    7.0258   -1.5325 C.ar      1 <1>        -0.1060
     19 C19         1.9643    7.5108   -2.2887 C.ar      1 <1>        -0.1083
     20 C20         3.1725    6.8393   -2.3043 C.ar      1 <1>        -0.1059
     21 C21         3.3300    5.6827   -1.5638 C.ar      1 <1>        -0.0940
     22 O1          3.8338    3.5779    0.0343 O.3       1 <1>        -0.4590
     23 H1          1.0357    4.8442    7.3951 H         1 <1>         0.1143
     24 H2          3.3794    4.2033    7.0114 H         1 <1>         0.1160
     25 H3          4.1966    3.8233    4.7227 H         1 <1>         0.1212
     26 H4          0.2958    4.7426    3.1977 H         1 <1>         0.1175
     27 H5         -0.5042    5.1077    5.4949 H         1 <1>         0.1153
     28 H6          3.8126    3.7450    2.2590 H         1 <1>         0.1235
     29 H7          0.9277    4.4490    1.5748 H         1 <1>         0.1150
     30 H8          3.3858    1.8388   -1.4227 H         1 <1>         0.1308
     31 H9          2.0916    0.0185   -2.4594 H         1 <1>         0.1152
     32 H10        -0.3626   -0.0144   -2.2620 H         1 <1>         0.1142
     33 H11        -1.5211    1.7626   -1.0117 H         1 <1>         0.1152
     34 H12        -0.2269    3.5825    0.0257 H         1 <1>         0.1175
     35 H13         0.2474    5.4850   -0.2088 H         1 <1>         0.1172
     36 H14        -0.0303    7.5503   -1.5206 H         1 <1>         0.1156
     37 H15         1.8412    8.4142   -2.8676 H         1 <1>         0.1146
     38 H16         3.9932    7.2180   -2.8954 H         1 <1>         0.1159
     39 H17         4.2738    5.1579   -1.5763 H         1 <1>         0.1234
     40 H18         4.4046    4.2502    0.4308 H         1 <1>         0.3359
@<TRIPOS>BOND
     1    1    6 ar
     2    1    2 ar
     3    1   23 1
     4    2    3 ar
     5    2   24 1
     6    3    4 ar
     7    3   25 1
     8    4    5 ar
     9    4    7 1
    10    5    6 ar
    11    5   26 1
    12    6   27 1
    13    7    8 2
    14    7   28 1
    15    8    9 1
    16    8   29 1
    17    9   10 1
    18    9   16 1
    19    9   22 1
    20   10   15 ar
    21   10   11 ar
    22   11   12 ar
    23   11   30 1
    24   12   13 ar
    25   12   31 1
    26   13   14 ar
    27   13   32 1
    28   14   15 ar
    29   14   33 1
    30   15   34 1
    31   16   21 ar
    32   16   17 ar
    33   17   18 ar
    34   17   35 1
    35   18   19 ar
    36   18   36 1
    37   19   20 ar
    38   19   37 1
    39   20   21 ar
    40   20   38 1
    41   21   39 1
    42   22   40 1
@<TRIPOS>Similarity
2.0000
@<TRIPOS>ShapeSim
1.0000
@<TRIPOS>PharmSim
1.0000
# END
# Name:		ZINC01719019
# Created and modified by SHAFTS on Mon Jun 23 14:53:19 2014

# 

@<TRIPOS>MOLECULE
ZINC01719019
   40    42     0
SMALL
USER_CHARGE


@<TRIPOS>ATOM
      1 C1          1.3900    4.6782    6.3885 C.ar      1 <1>        -0.1088
      2 C2          2.7082    4.3178    6.1731 C.ar      1 <1>        -0.1054
      3 C3          3.1673    4.1047    4.8896 C.ar      1 <1>        -0.0970
      4 C4          2.2988    4.2530    3.8076 C.ar      1 <1>        -0.0949
      5 C5          0.9718    4.6218    4.0313 C.ar      1 <1>        -0.0988
      6 C6          0.5237    4.8264    5.3201 C.ar      1 <1>        -0.1066
      7 C7          2.7839    4.0262    2.4299 C.2       1 <1>        -0.0929
      8 C8          1.9564    4.1678    1.4040 C.2       1 <1>        -0.0753
      9 C9          2.4510    3.9366   -0.0006 C.3       1 <1>         0.0278
     10 C10         1.6589    2.8225   -0.6351 C.ar      1 <1>        -0.0583
     11 C11         2.3097    1.8220   -1.3324 C.ar      1 <1>        -0.0844
     12 C12         1.5832    0.8001   -1.9143 C.ar      1 <1>        -0.1030
     13 C13         0.2054    0.7816   -1.8036 C.ar      1 <1>        -0.1086
     14 C14        -0.4450    1.7793   -1.1018 C.ar      1 <1>        -0.1056
     15 C15         0.2816    2.8010   -0.5194 C.ar      1 <1>        -0.0897
     16 C16         2.2794    5.1977   -0.8076 C.ar      1 <1>        -0.0682
     17 C17         1.0696    5.8664   -0.7961 C.ar      1 <1>        -0.0952
     18 C18         0.9137    7.0258   -1.5325 C.ar      1 <1>        -0.1060
     19 C19         1.9643    7.5108   -2.2887 C.ar      1 <1>        -0.1083
     20 C20         3.1725    6.8393   -2.3043 C.ar      1 <1>        -0.1059
     21 C21         3.3300    5.6827   -1.5638 C.ar      1 <1>        -0.0940
     22 O1          3.8338    3.5779    0.0343 O.3       1 <1>        -0.4590
     23 H1          1.0357    4.8442    7.3951 H         1 <1>         0.1143
     24 H2          3.3794    4.2033    7.0114 H         1 <1>         0.1160
     25 H3          4.1966    3.8233    4.7227 H         1 <1>         0.1212
     26 H4          0.2958    4.7426    3.1977 H         1 <1>         0.1175
     27 H5         -0.5042    5.1077    5.4949 H         1 <1>         0.1153
     28 H6          3.8126    3.7450    2.2590 H         1 <1>         0.1235
     29 H7          0.9277    4.4490    1.5748 H         1 <1>         0.1150
     30 H8          3.3858    1.8388   -1.4227 H         1 <1>         0.1308
     31 H9          2.0916    0.0185   -2.4594 H         1 <1>         0.1152
     32 H10        -0.3626   -0.0144   -2.2620 H         1 <1>         0.1142
     33 H11        -1.5211    1.7626   -1.0117 H         1 <1>         0.1152
     34 H12        -0.2269    3.5825    0.0257 H         1 <1>         0.1175
     35 H13         0.2474    5.4850   -0.2088 H         1 <1>         0.1172
     36 H14        -0.0303    7.5503   -1.5206 H         1 <1>         0.1156
     37 H15         1.8412    8.4142   -2.8676 H         1 <1>         0.1146
     38 H16         3.9932    7.2180   -2.8954 H         1 <1>         0.1159
     39 H17         4.2738    5.1579   -1.5763 H         1 <1>         0.1234
     40 H18         4.4046    4.2502    0.4308 H         1 <1>         0.3359
@<TRIPOS>BOND
     1    1    6 ar
     2    1    2 ar
     3    1   23 1
     4    2    3 ar
     5    2   24 1
     6    3    4 ar
     7    3   25 1
     8    4    5 ar
     9    4    7 1
    10    5    6 ar
    11    5   26 1
    12    6   27 1
    13    7    8 2
    14    7   28 1
    15    8    9 1
    16    8   29 1
    17    9   10 1
    18    9   16 1
    19    9   22 1
    20   10   15 ar
    21   10   11 ar
    22   11   12 ar
    23   11   30 1
    24   12   13 ar
    25   12   31 1
    26   13   14 ar
    27   13   32 1
    28   14   15 ar
    29   14   33 1
    30   15   34 1
    31   16   21 ar
    32   16   17 ar
    33   17   18 ar
    34   17   35 1
    35   18   19 ar
    36   18   36 1
    37   19   20 ar
    38   19   37 1
    39   20   21 ar
    40   20   38 1
    41   21   39 1
    42   22   40 1
@<TRIPOS>Similarity
2.0000
@<TRIPOS>ShapeSim
1.0000
@<TRIPOS>PharmSim
1.0000
# END
# Name:		ZINC01719019
# Created and modified by SHAFTS on Mon Jun 23 14:53:19 2014

# 

@<TRIPOS>MOLECULE
ZINC01719019
   40    42     0
SMALL
USER_CHARGE


@<TRIPOS>ATOM
      1 C1          1.3900    4.6782    6.3885 C.ar      1 <1>        -0.1088
      2 C2          2.7082    4.3178    6.1731 C.ar      1 <1>        -0.1054
      3 C3          3.1673    4.1047    4.8896 C.ar      1 <1>        -0.0970
      4 C4          2.2988    4.2530    3.8076 C.ar      1 <1>        -0.0949
      5 C5          0.9718    4.6218    4.0313 C.ar      1 <1>        -0.0988
      6 C6          0.5237    4.8264    5.3201 C.ar      1 <1>        -0.1066
      7 C7          2.7839    4.0262    2.4299 C.2       1 <1>        -0.0929
      8 C8          1.9564    4.1678    1.4040 C.2       1 <1>        -0.0753
      9 C9          2.4510    3.9366   -0.0006 C.3       1 <1>         0.0278
     10 C10         1.6589    2.8225   -0.6351 C.ar      1 <1>        -0.0583
     11 C11         2.3097    1.8220   -1.3324 C.ar      1 <1>        -0.0844
     12 C12         1.5832    0.8001   -1.9143 C.ar      1 <1>        -0.1030
     13 C13         0.2054    0.7816   -1.8036 C.ar      1 <1>        -0.1086
     14 C14        -0.4450    1.7793   -1.1018 C.ar      1 <1>        -0.1056
     15 C15         0.2816    2.8010   -0.5194 C.ar      1 <1>        -0.0897
     16 C16         2.2794    5.1977   -0.8076 C.ar      1 <1>        -0.0682
     17 C17         1.0696    5.8664   -0.7961 C.ar      1 <1>        -0.0952
     18 C18         0.9137    7.0258   -1.5325 C.ar      1 <1>        -0.1060
     19 C19         1.9643    7.5108   -2.2887 C.ar      1 <1>        -0.1083
     20 C20         3.1725    6.8393   -2.3043 C.ar      1 <1>        -0.1059
     21 C21         3.3300    5.6827   -1.5638 C.ar      1 <1>        -0.0940
     22 O1          3.8338    3.5779    0.0343 O.3       1 <1>        -0.4590
     23 H1          1.0357    4.8442    7.3951 H         1 <1>         0.1143
     24 H2          3.3794    4.2033    7.0114 H         1 <1>         0.1160
     25 H3          4.1966    3.8233    4.7227 H         1 <1>         0.1212
     26 H4          0.2958    4.7426    3.1977 H         1 <1>         0.1175
     27 H5         -0.5042    5.1077    5.4949 H         1 <1>         0.1153
     28 H6          3.8126    3.7450    2.2590 H         1 <1>         0.1235
     29 H7          0.9277    4.4490    1.5748 H         1 <1>         0.1150
     30 H8          3.3858    1.8388   -1.4227 H         1 <1>         0.1308
     31 H9          2.0916    0.0185   -2.4594 H         1 <1>         0.1152
     32 H10        -0.3626   -0.0144   -2.2620 H         1 <1>         0.1142
     33 H11        -1.5211    1.7626   -1.0117 H         1 <1>         0.1152
     34 H12        -0.2269    3.5825    0.0257 H         1 <1>         0.1175
     35 H13         0.2474    5.4850   -0.2088 H         1 <1>         0.1172
     36 H14        -0.0303    7.5503   -1.5206 H         1 <1>         0.1156
     37 H15         1.8412    8.4142   -2.8676 H         1 <1>         0.1146
     38 H16         3.9932    7.2180   -2.8954 H         1 <1>         0.1159
     39 H17         4.2738    5.1579   -1.5763 H         1 <1>         0.1234
     40 H18         4.4046    4.2502    0.4308 H         1 <1>         0.3359
@<TRIPOS>BOND
     1    1    6 ar
     2    1    2 ar
     3    1   23 1
     4    2    3 ar
     5    2   24 1
     6    3    4 ar
     7    3   25 1
     8    4    5 ar
     9    4    7 1
    10    5    6 ar
    11    5   26 1
    12    6   27 1
    13    7    8 2
    14    7   28 1
    15    8    9 1
    16    8   29 1
    17    9   10 1
    18    9   16 1
    19    9   22 1
    20   10   15 ar
    21   10   11 ar
    22   11   12 ar
    23   11   30 1
    24   12   13 ar
    25   12   31 1
    26   13   14 ar
    27   13   32 1
    28   14   15 ar
    29   14   33 1
    30   15   34 1
    31   16   21 ar
    32   16   17 ar
    33   17   18 ar
    34   17   35 1
    35   18   19 ar
    36   18   36 1
    37   19   20 ar
    38   19   37 1
    39   20   21 ar
    40   20   38 1
    41   21   39 1
    42   22   40 1
@<TRIPOS>Similarity
2.0000
@<TRIPOS>ShapeSim
1.0000
@<TRIPOS>PharmSim
1.0000
# END
# Name:		ZINC01719019
# Created and modified by SHAFTS on Mon Jun 23 14:53:19 2014

# 

@<TRIPOS>MOLECULE
ZINC01719019
   40    42     0
SMALL
USER_CHARGE


@<TRIPOS>ATOM
      1 C1          1.3900    4.6782    6.3885 C.ar      1 <1>        -0.1088
      2 C2          2.7082    4.3178    6.1731 C.ar      1 <1>        -0.1054
      3 C3          3.1673    4.1047    4.8896 C.ar      1 <1>        -0.0970
      4 C4          2.2988    4.2530    3.8076 C.ar      1 <1>        -0.0949
      5 C5          0.9718    4.6218    4.0313 C.ar      1 <1>        -0.0988
      6 C6          0.5237    4.8264    5.3201 C.ar      1 <1>        -0.1066
      7 C7          2.7839    4.0262    2.4299 C.2       1 <1>        -0.0929
      8 C8          1.9564    4.1678    1.4040 C.2       1 <1>        -0.0753
      9 C9          2.4510    3.9366   -0.0006 C.3       1 <1>         0.0278
     10 C10         1.6589    2.8225   -0.6351 C.ar      1 <1>        -0.0583
     11 C11         2.3097    1.8220   -1.3324 C.ar      1 <1>        -0.0844
     12 C12         1.5832    0.8001   -1.9143 C.ar      1 <1>        -0.1030
     13 C13         0.2054    0.7816   -1.8036 C.ar      1 <1>        -0.1086
     14 C14        -0.4450    1.7793   -1.1018 C.ar      1 <1>        -0.1056
     15 C15         0.2816    2.8010   -0.5194 C.ar      1 <1>        -0.0897
     16 C16         2.2794    5.1977   -0.8076 C.ar      1 <1>        -0.0682
     17 C17         1.0696    5.8664   -0.7961 C.ar      1 <1>        -0.0952
     18 C18         0.9137    7.0258   -1.5325 C.ar      1 <1>        -0.1060
     19 C19         1.9643    7.5108   -2.2887 C.ar      1 <1>        -0.1083
     20 C20         3.1725    6.8393   -2.3043 C.ar      1 <1>        -0.1059
     21 C21         3.3300    5.6827   -1.5638 C.ar      1 <1>        -0.0940
     22 O1          3.8338    3.5779    0.0343 O.3       1 <1>        -0.4590
     23 H1          1.0357    4.8442    7.3951 H         1 <1>         0.1143
     24 H2          3.3794    4.2033    7.0114 H         1 <1>         0.1160
     25 H3          4.1966    3.8233    4.7227 H         1 <1>         0.1212
     26 H4          0.2958    4.7426    3.1977 H         1 <1>         0.1175
     27 H5         -0.5042    5.1077    5.4949 H         1 <1>         0.1153
     28 H6          3.8126    3.7450    2.2590 H         1 <1>         0.1235
     29 H7          0.9277    4.4490    1.5748 H         1 <1>         0.1150
     30 H8          3.3858    1.8388   -1.4227 H         1 <1>         0.1308
     31 H9          2.0916    0.0185   -2.4594 H         1 <1>         0.1152
     32 H10        -0.3626   -0.0144   -2.2620 H         1 <1>         0.1142
     33 H11        -1.5211    1.7626   -1.0117 H         1 <1>         0.1152
     34 H12        -0.2269    3.5825    0.0257 H         1 <1>         0.1175
     35 H13         0.2474    5.4850   -0.2088 H         1 <1>         0.1172
     36 H14        -0.0303    7.5503   -1.5206 H         1 <1>         0.1156
     37 H15         1.8412    8.4142   -2.8676 H         1 <1>         0.1146
     38 H16         3.9932    7.2180   -2.8954 H         1 <1>         0.1159
     39 H17         4.2738    5.1579   -1.5763 H         1 <1>         0.1234
     40 H18         4.4046    4.2502    0.4308 H         1 <1>         0.3359
@<TRIPOS>BOND
     1    1    6 ar
     2    1    2 ar
     3    1   23 1
     4    2    3 ar
     5    2   24 1
     6    3    4 ar
     7    3   25 1
     8    4    5 ar
     9    4    7 1
    10    5    6 ar
    11    5   26 1
    12    6   27 1
    13    7    8 2
    14    7   28 1
    15    8    9 1
    16    8   29 1
    17    9   10 1
    18    9   16 1
    19    9   22 1
    20   10   15 ar
    21   10   11 ar
    22   11   12 ar
    23   11   30 1
    24   12   13 ar
    25   12   31 1
    26   13   14 ar
    27   13   32 1
    28   14   15 ar
    29   14   33 1
    30   15   34 1
    31   16   21 ar
    32   16   17 ar
    33   17   18 ar
    34   17   35 1
    35   18   19 ar
    36   18   36 1
    37   19   20 ar
    38   19   37 1
    39   20   21 ar
    40   20   38 1
    41   21   39 1
    42   22   40 1
@<TRIPOS>Similarity
2.0000
@<TRIPOS>ShapeSim
1.0000
@<TRIPOS>PharmSim
1.0000
# END
# Name:		ZINC01719019
# Created and modified by SHAFTS on Mon Jun 23 14:53:19 2014

# 

@<TRIPOS>MOLECULE
ZINC01719019
   40    42     0
SMALL
USER_CHARGE


@<TRIPOS>ATOM
      1 C1          1.3900    4.6782    6.3885 C.ar      1 <1>        -0.1088
      2 C2          2.7082    4.3178    6.1731 C.ar      1 <1>        -0.1054
      3 C3          3.1673    4.1047    4.8896 C.ar      1 <1>        -0.0970
      4 C4          2.2988    4.2530    3.8076 C.ar      1 <1>        -0.0949
      5 C5          0.9718    4.6218    4.0313 C.ar      1 <1>        -0.0988
      6 C6          0.5237    4.8264    5.3201 C.ar      1 <1>        -0.1066
      7 C7          2.7839    4.0262    2.4299 C.2       1 <1>        -0.0929
      8 C8          1.9564    4.1678    1.4040 C.2       1 <1>        -0.0753
      9 C9          2.4510    3.9366   -0.0006 C.3       1 <1>         0.0278
     10 C10         1.6589    2.8225   -0.6351 C.ar      1 <1>        -0.0583
     11 C11         2.3097    1.8220   -1.3324 C.ar      1 <1>        -0.0844
     12 C12         1.5832    0.8001   -1.9143 C.ar      1 <1>        -0.1030
     13 C13         0.2054    0.7816   -1.8036 C.ar      1 <1>        -0.1086
     14 C14        -0.4450    1.7793   -1.1018 C.ar      1 <1>        -0.1056
     15 C15         0.2816    2.8010   -0.5194 C.ar      1 <1>        -0.0897
     16 C16         2.2794    5.1977   -0.8076 C.ar      1 <1>        -0.0682
     17 C17         1.0696    5.8664   -0.7961 C.ar      1 <1>        -0.0952
     18 C18         0.9137    7.0258   -1.5325 C.ar      1 <1>        -0.1060
     19 C19         1.9643    7.5108   -2.2887 C.ar      1 <1>        -0.1083
     20 C20         3.1725    6.8393   -2.3043 C.ar      1 <1>        -0.1059
     21 C21         3.3300    5.6827   -1.5638 C.ar      1 <1>        -0.0940
     22 O1          3.8338    3.5779    0.0343 O.3       1 <1>        -0.4590
     23 H1          1.0357    4.8442    7.3951 H         1 <1>         0.1143
     24 H2          3.3794    4.2033    7.0114 H         1 <1>         0.1160
     25 H3          4.1966    3.8233    4.7227 H         1 <1>         0.1212
     26 H4          0.2958    4.7426    3.1977 H         1 <1>         0.1175
     27 H5         -0.5042    5.1077    5.4949 H         1 <1>         0.1153
     28 H6          3.8126    3.7450    2.2590 H         1 <1>         0.1235
     29 H7          0.9277    4.4490    1.5748 H         1 <1>         0.1150
     30 H8          3.3858    1.8388   -1.4227 H         1 <1>         0.1308
     31 H9          2.0916    0.0185   -2.4594 H         1 <1>         0.1152
     32 H10        -0.3626   -0.0144   -2.2620 H         1 <1>         0.1142
     33 H11        -1.5211    1.7626   -1.0117 H         1 <1>         0.1152
     34 H12        -0.2269    3.5825    0.0257 H         1 <1>         0.1175
     35 H13         0.2474    5.4850   -0.2088 H         1 <1>         0.1172
     36 H14        -0.0303    7.5503   -1.5206 H         1 <1>         0.1156
     37 H15         1.8412    8.4142   -2.8676 H         1 <1>         0.1146
     38 H16         3.9932    7.2180   -2.8954 H         1 <1>         0.1159
     39 H17         4.2738    5.1579   -1.5763 H         1 <1>         0.1234
     40 H18         4.4046    4.2502    0.4308 H         1 <1>         0.3359
@<TRIPOS>BOND
     1    1    6 ar
     2    1    2 ar
     3    1   23 1
     4    2    3 ar
     5    2   24 1
     6    3    4 ar
     7    3   25 1
     8    4    5 ar
     9    4    7 1
    10    5    6 ar
    11    5   26 1
    12    6   27 1
    13    7    8 2
    14    7   28 1
    15    8    9 1
    16    8   29 1
    17    9   10 1
    18    9   16 1
    19    9   22 1
    20   10   15 ar
    21   10   11 ar
    22   11   12 ar
    23   11   30 1
    24   12   13 ar
    25   12   31 1
    26   13   14 ar
    27   13   32 1
    28   14   15 ar
    29   14   33 1
    30   15   34 1
    31   16   21 ar
    32   16   17 ar
    33   17   18 ar
    34   17   35 1
    35   18   19 ar
    36   18   36 1
    37   19   20 ar
    38   19   37 1
    39   20   21 ar
    40   20   38 1
    41   21   39 1
    42   22   40 1
@<TRIPOS>Similarity
2.0000
@<TRIPOS>ShapeSim
1.0000
@<TRIPOS>PharmSim
1.0000
# END
# Name:		ZINC01719019
# Created and modified by SHAFTS on Mon Jun 23 14:53:19 2014

# 

@<TRIPOS>MOLECULE
ZINC01719019
   40    42     0
SMALL
USER_CHARGE


@<TRIPOS>ATOM
      1 C1          1.3900    4.6782    6.3885 C.ar      1 <1>        -0.1088
      2 C2          2.7082    4.3178    6.1731 C.ar      1 <1>        -0.1054
      3 C3          3.1673    4.1047    4.8896 C.ar      1 <1>        -0.0970
      4 C4          2.2988    4.2530    3.8076 C.ar      1 <1>        -0.0949
      5 C5          0.9718    4.6218    4.0313 C.ar      1 <1>        -0.0988
      6 C6          0.5237    4.8264    5.3201 C.ar      1 <1>        -0.1066
      7 C7          2.7839    4.0262    2.4299 C.2       1 <1>        -0.0929
      8 C8          1.9564    4.1678    1.4040 C.2       1 <1>        -0.0753
      9 C9          2.4510    3.9366   -0.0006 C.3       1 <1>         0.0278
     10 C10         1.6589    2.8225   -0.6351 C.ar      1 <1>        -0.0583
     11 C11         2.3097    1.8220   -1.3324 C.ar      1 <1>        -0.0844
     12 C12         1.5832    0.8001   -1.9143 C.ar      1 <1>        -0.1030
     13 C13         0.2054    0.7816   -1.8036 C.ar      1 <1>        -0.1086
     14 C14        -0.4450    1.7793   -1.1018 C.ar      1 <1>        -0.1056
     15 C15         0.2816    2.8010   -0.5194 C.ar      1 <1>        -0.0897
     16 C16         2.2794    5.1977   -0.8076 C.ar      1 <1>        -0.0682
     17 C17         1.0696    5.8664   -0.7961 C.ar      1 <1>        -0.0952
     18 C18         0.9137    7.0258   -1.5325 C.ar      1 <1>        -0.1060
     19 C19         1.9643    7.5108   -2.2887 C.ar      1 <1>        -0.1083
     20 C20         3.1725    6.8393   -2.3043 C.ar      1 <1>        -0.1059
     21 C21         3.3300    5.6827   -1.5638 C.ar      1 <1>        -0.0940
     22 O1          3.8338    3.5779    0.0343 O.3       1 <1>        -0.4590
     23 H1          1.0357    4.8442    7.3951 H         1 <1>         0.1143
     24 H2          3.3794    4.2033    7.0114 H         1 <1>         0.1160
     25 H3          4.1966    3.8233    4.7227 H         1 <1>         0.1212
     26 H4          0.2958    4.7426    3.1977 H         1 <1>         0.1175
     27 H5         -0.5042    5.1077    5.4949 H         1 <1>         0.1153
     28 H6          3.8126    3.7450    2.2590 H         1 <1>         0.1235
     29 H7          0.9277    4.4490    1.5748 H         1 <1>         0.1150
     30 H8          3.3858    1.8388   -1.4227 H         1 <1>         0.1308
     31 H9          2.0916    0.0185   -2.4594 H         1 <1>         0.1152
     32 H10        -0.3626   -0.0144   -2.2620 H         1 <1>         0.1142
     33 H11        -1.5211    1.7626   -1.0117 H         1 <1>         0.1152
     34 H12        -0.2269    3.5825    0.0257 H         1 <1>         0.1175
     35 H13         0.2474    5.4850   -0.2088 H         1 <1>         0.1172
     36 H14        -0.0303    7.5503   -1.5206 H         1 <1>         0.1156
     37 H15         1.8412    8.4142   -2.8676 H         1 <1>         0.1146
     38 H16         3.9932    7.2180   -2.8954 H         1 <1>         0.1159
     39 H17         4.2738    5.1579   -1.5763 H         1 <1>         0.1234
     40 H18         4.4046    4.2502    0.4308 H         1 <1>         0.3359
@<TRIPOS>BOND
     1    1    6 ar
     2    1    2 ar
     3    1   23 1
     4    2    3 ar
     5    2   24 1
     6    3    4 ar
     7    3   25 1
     8    4    5 ar
     9    4    7 1
    10    5    6 ar
    11    5   26 1
    12    6   27 1
    13    7    8 2
    14    7   28 1
    15    8    9 1
    16    8   29 1
    17    9   10 1
    18    9   16 1
    19    9   22 1
    20   10   15 ar
    21   10   11 ar
    22   11   12 ar
    23   11   30 1
    24   12   13 ar
    25   12   31 1
    26   13   14 ar
    27   13   32 1
    28   14   15 ar
    29   14   33 1
    30   15   34 1
    31   16   21 ar
    32   16   17 ar
    33   17   18 ar
    34   17   35 1
    35   18   19 ar
    36   18   36 1
    37   19   20 ar
    38   19   37 1
    39   20   21 ar
    40   20   38 1
    41   21   39 1
    42   22   40 1
@<TRIPOS>Similarity
2.0000
@<TRIPOS>ShapeSim
1.0000
@<TRIPOS>PharmSim
1.0000
# END
# Name:		ZINC01719019
# Created and modified by SHAFTS on Mon Jun 23 14:53:19 2014

# 

@<TRIPOS>MOLECULE
ZINC01719019
   40    42     0
SMALL
USER_CHARGE


@<TRIPOS>ATOM
      1 C1          1.3900    4.6782    6.3885 C.ar      1 <1>        -0.1088
      2 C2          2.7082    4.3178    6.1731 C.ar      1 <1>        -0.1054
      3 C3          3.1673    4.1047    4.8896 C.ar      1 <1>        -0.0970
      4 C4          2.2988    4.2530    3.8076 C.ar      1 <1>        -0.0949
      5 C5          0.9718    4.6218    4.0313 C.ar      1 <1>        -0.0988
      6 C6          0.5237    4.8264    5.3201 C.ar      1 <1>        -0.1066
      7 C7          2.7839    4.0262    2.4299 C.2       1 <1>        -0.0929
      8 C8          1.9564    4.1678    1.4040 C.2       1 <1>        -0.0753
      9 C9          2.4510    3.9366   -0.0006 C.3       1 <1>         0.0278
     10 C10         1.6589    2.8225   -0.6351 C.ar      1 <1>        -0.0583
     11 C11         2.3097    1.8220   -1.3324 C.ar      1 <1>        -0.0844
     12 C12         1.5832    0.8001   -1.9143 C.ar      1 <1>        -0.1030
     13 C13         0.2054    0.7816   -1.8036 C.ar      1 <1>        -0.1086
     14 C14        -0.4450    1.7793   -1.1018 C.ar      1 <1>        -0.1056
     15 C15         0.2816    2.8010   -0.5194 C.ar      1 <1>        -0.0897
     16 C16         2.2794    5.1977   -0.8076 C.ar      1 <1>        -0.0682
     17 C17         1.0696    5.8664   -0.7961 C.ar      1 <1>        -0.0952
     18 C18         0.9137    7.0258   -1.5325 C.ar      1 <1>        -0.1060
     19 C19         1.9643    7.5108   -2.2887 C.ar      1 <1>        -0.1083
     20 C20         3.1725    6.8393   -2.3043 C.ar      1 <1>        -0.1059
     21 C21         3.3300    5.6827   -1.5638 C.ar      1 <1>        -0.0940
     22 O1          3.8338    3.5779    0.0343 O.3       1 <1>        -0.4590
     23 H1          1.0357    4.8442    7.3951 H         1 <1>         0.1143
     24 H2          3.3794    4.2033    7.0114 H         1 <1>         0.1160
     25 H3          4.1966    3.8233    4.7227 H         1 <1>         0.1212
     26 H4          0.2958    4.7426    3.1977 H         1 <1>         0.1175
     27 H5         -0.5042    5.1077    5.4949 H         1 <1>         0.1153
     28 H6          3.8126    3.7450    2.2590 H         1 <1>         0.1235
     29 H7          0.9277    4.4490    1.5748 H         1 <1>         0.1150
     30 H8          3.3858    1.8388   -1.4227 H         1 <1>         0.1308
     31 H9          2.0916    0.0185   -2.4594 H         1 <1>         0.1152
     32 H10        -0.3626   -0.0144   -2.2620 H         1 <1>         0.1142
     33 H11        -1.5211    1.7626   -1.0117 H         1 <1>         0.1152
     34 H12        -0.2269    3.5825    0.0257 H         1 <1>         0.1175
     35 H13         0.2474    5.4850   -0.2088 H         1 <1>         0.1172
     36 H14        -0.0303    7.5503   -1.5206 H         1 <1>         0.1156
     37 H15         1.8412    8.4142   -2.8676 H         1 <1>         0.1146
     38 H16         3.9932    7.2180   -2.8954 H         1 <1>         0.1159
     39 H17         4.2738    5.1579   -1.5763 H         1 <1>         0.1234
     40 H18         4.4046    4.2502    0.4308 H         1 <1>         0.3359
@<TRIPOS>BOND
     1    1    6 ar
     2    1    2 ar
     3    1   23 1
     4    2    3 ar
     5    2   24 1
     6    3    4 ar
     7    3   25 1
     8    4    5 ar
     9    4    7 1
    10    5    6 ar
    11    5   26 1
    12    6   27 1
    13    7    8 2
    14    7   28 1
    15    8    9 1
    16    8   29 1
    17    9   10 1
    18    9   16 1
    19    9   22 1
    20   10   15 ar
    21   10   11 ar
    22   11   12 ar
    23   11   30 1
    24   12   13 ar
    25   12   31 1
    26   13   14 ar
    27   13   32 1
    28   14   15 ar
    29   14   33 1
    30   15   34 1
    31   16   21 ar
    32   16   17 ar
    33   17   18 ar
    34   17   35 1
    35   18   19 ar
    36   18   36 1
    37   19   20 ar
    38   19   37 1
    39   20   21 ar
    40   20   38 1
    41   21   39 1
    42   22   40 1
@<TRIPOS>Similarity
2.0000
@<TRIPOS>ShapeSim
1.0000
@<TRIPOS>PharmSim
1.0000
# END
# Name:		ZINC01719019
# Created and modified by SHAFTS on Mon Jun 23 14:53:19 2014

# 

@<TRIPOS>MOLECULE
ZINC01719019
   40    42     0
SMALL
USER_CHARGE


@<TRIPOS>ATOM
      1 C1          1.3900    4.6782    6.3885 C.ar      1 <1>        -0.1088
      2 C2          2.7082    4.3178    6.1731 C.ar      1 <1>        -0.1054
      3 C3          3.1673    4.1047    4.8896 C.ar      1 <1>        -0.0970
      4 C4          2.2988    4.2530    3.8076 C.ar      1 <1>        -0.0949
      5 C5          0.9718    4.6218    4.0313 C.ar      1 <1>        -0.0988
      6 C6          0.5237    4.8264    5.3201 C.ar      1 <1>        -0.1066
      7 C7          2.7839    4.0262    2.4299 C.2       1 <1>        -0.0929
      8 C8          1.9564    4.1678    1.4040 C.2       1 <1>        -0.0753
      9 C9          2.4510    3.9366   -0.0006 C.3       1 <1>         0.0278
     10 C10         1.6589    2.8225   -0.6351 C.ar      1 <1>        -0.0583
     11 C11         2.3097    1.8220   -1.3324 C.ar      1 <1>        -0.0844
     12 C12         1.5832    0.8001   -1.9143 C.ar      1 <1>        -0.1030
     13 C13         0.2054    0.7816   -1.8036 C.ar      1 <1>        -0.1086
     14 C14        -0.4450    1.7793   -1.1018 C.ar      1 <1>        -0.1056
     15 C15         0.2816    2.8010   -0.5194 C.ar      1 <1>        -0.0897
     16 C16         2.2794    5.1977   -0.8076 C.ar      1 <1>        -0.0682
     17 C17         1.0696    5.8664   -0.7961 C.ar      1 <1>        -0.0952
     18 C18         0.9137    7.0258   -1.5325 C.ar      1 <1>        -0.1060
     19 C19         1.9643    7.5108   -2.2887 C.ar      1 <1>        -0.1083
     20 C20         3.1725    6.8393   -2.3043 C.ar      1 <1>        -0.1059
     21 C21         3.3300    5.6827   -1.5638 C.ar      1 <1>        -0.0940
     22 O1          3.8338    3.5779    0.0343 O.3       1 <1>        -0.4590
     23 H1          1.0357    4.8442    7.3951 H         1 <1>         0.1143
     24 H2          3.3794    4.2033    7.0114 H         1 <1>         0.1160
     25 H3          4.1966    3.8233    4.7227 H         1 <1>         0.1212
     26 H4          0.2958    4.7426    3.1977 H         1 <1>         0.1175
     27 H5         -0.5042    5.1077    5.4949 H         1 <1>         0.1153
     28 H6          3.8126    3.7450    2.2590 H         1 <1>         0.1235
     29 H7          0.9277    4.4490    1.5748 H         1 <1>         0.1150
     30 H8          3.3858    1.8388   -1.4227 H         1 <1>         0.1308
     31 H9          2.0916    0.0185   -2.4594 H         1 <1>         0.1152
     32 H10        -0.3626   -0.0144   -2.2620 H         1 <1>         0.1142
     33 H11        -1.5211    1.7626   -1.0117 H         1 <1>         0.1152
     34 H12        -0.2269    3.5825    0.0257 H         1 <1>         0.1175
     35 H13         0.2474    5.4850   -0.2088 H         1 <1>         0.1172
     36 H14        -0.0303    7.5503   -1.5206 H         1 <1>         0.1156
     37 H15         1.8412    8.4142   -2.8676 H         1 <1>         0.1146
     38 H16         3.9932    7.2180   -2.8954 H         1 <1>         0.1159
     39 H17         4.2738    5.1579   -1.5763 H         1 <1>         0.1234
     40 H18         4.4046    4.2502    0.4308 H         1 <1>         0.3359
@<TRIPOS>BOND
     1    1    6 ar
     2    1    2 ar
     3    1   23 1
     4    2    3 ar
     5    2   24 1
     6    3    4 ar
     7    3   25 1
     8    4    5 ar
     9    4    7 1
    10    5    6 ar
    11    5   26 1
    12    6   27 1
    13    7    8 2
    14    7   28 1
    15    8    9 1
    16    8   29 1
    17    9   10 1
    18    9   16 1
    19    9   22 1
    20   10   15 ar
    21   10   11 ar
    22   11   12 ar
    23   11   30 1
    24   12   13 ar
    25   12   31 1
    26   13   14 ar
    27   13   32 1
    28   14   15 ar
    29   14   33 1
    30   15   34 1
    31   16   21 ar
    32   16   17 ar
    33   17   18 ar
    34   17   35 1
    35   18   19 ar
    36   18   36 1
    37   19   20 ar
    38   19   37 1
    39   20   21 ar
    40   20   38 1
    41   21   39 1
    42   22   40 1
@<TRIPOS>Similarity
2.0000
@<TRIPOS>ShapeSim
1.0000
@<TRIPOS>PharmSim
1.0000
# END
# Name:		ZINC01719019
# Created and modified by SHAFTS on Mon Jun 23 14:53:19 2014

# 

@<TRIPOS>MOLECULE
ZINC01719019
   40    42     0
SMALL
USER_CHARGE


@<TRIPOS>ATOM
      1 C1          1.3900    4.6782    6.3885 C.ar      1 <1>        -0.1088
      2 C2          2.7082    4.3178    6.1731 C.ar      1 <1>        -0.1054
      3 C3          3.1673    4.1047    4.8896 C.ar      1 <1>        -0.0970
      4 C4          2.2988    4.2530    3.8076 C.ar      1 <1>        -0.0949
      5 C5          0.9718    4.6218    4.0313 C.ar      1 <1>        -0.0988
      6 C6          0.5237    4.8264    5.3201 C.ar      1 <1>        -0.1066
      7 C7          2.7839    4.0262    2.4299 C.2       1 <1>        -0.0929
      8 C8          1.9564    4.1678    1.4040 C.2       1 <1>        -0.0753
      9 C9          2.4510    3.9366   -0.0006 C.3       1 <1>         0.0278
     10 C10         1.6589    2.8225   -0.6351 C.ar      1 <1>        -0.0583
     11 C11         2.3097    1.8220   -1.3324 C.ar      1 <1>        -0.0844
     12 C12         1.5832    0.8001   -1.9143 C.ar      1 <1>        -0.1030
     13 C13         0.2054    0.7816   -1.8036 C.ar      1 <1>        -0.1086
     14 C14        -0.4450    1.7793   -1.1018 C.ar      1 <1>        -0.1056
     15 C15         0.2816    2.8010   -0.5194 C.ar      1 <1>        -0.0897
     16 C16         2.2794    5.1977   -0.8076 C.ar      1 <1>        -0.0682
     17 C17         1.0696    5.8664   -0.7961 C.ar      1 <1>        -0.0952
     18 C18         0.9137    7.0258   -1.5325 C.ar      1 <1>        -0.1060
     19 C19         1.9643    7.5108   -2.2887 C.ar      1 <1>        -0.1083
     20 C20         3.1725    6.8393   -2.3043 C.ar      1 <1>        -0.1059
     21 C21         3.3300    5.6827   -1.5638 C.ar      1 <1>        -0.0940
     22 O1          3.8338    3.5779    0.0343 O.3       1 <1>        -0.4590
     23 H1          1.0357    4.8442    7.3951 H         1 <1>         0.1143
     24 H2          3.3794    4.2033    7.0114 H         1 <1>         0.1160
     25 H3          4.1966    3.8233    4.7227 H         1 <1>         0.1212
     26 H4          0.2958    4.7426    3.1977 H         1 <1>         0.1175
     27 H5         -0.5042    5.1077    5.4949 H         1 <1>         0.1153
     28 H6          3.8126    3.7450    2.2590 H         1 <1>         0.1235
     29 H7          0.9277    4.4490    1.5748 H         1 <1>         0.1150
     30 H8          3.3858    1.8388   -1.4227 H         1 <1>         0.1308
     31 H9          2.0916    0.0185   -2.4594 H         1 <1>         0.1152
     32 H10        -0.3626   -0.0144   -2.2620 H         1 <1>         0.1142
     33 H11        -1.5211    1.7626   -1.0117 H         1 <1>         0.1152
     34 H12        -0.2269    3.5825    0.0257 H         1 <1>         0.1175
     35 H13         0.2474    5.4850   -0.2088 H         1 <1>         0.1172
     36 H14        -0.0303    7.5503   -1.5206 H         1 <1>         0.1156
     37 H15         1.8412    8.4142   -2.8676 H         1 <1>         0.1146
     38 H16         3.9932    7.2180   -2.8954 H         1 <1>         0.1159
     39 H17         4.2738    5.1579   -1.5763 H         1 <1>         0.1234
     40 H18         4.4046    4.2502    0.4308 H         1 <1>         0.3359
@<TRIPOS>BOND
     1    1    6 ar
     2    1    2 ar
     3    1   23 1
     4    2    3 ar
     5    2   24 1
     6    3    4 ar
     7    3   25 1
     8    4    5 ar
     9    4    7 1
    10    5    6 ar
    11    5   26 1
    12    6   27 1
    13    7    8 2
    14    7   28 1
    15    8    9 1
    16    8   29 1
    17    9   10 1
    18    9   16 1
    19    9   22 1
    20   10   15 ar
    21   10   11 ar
    22   11   12 ar
    23   11   30 1
    24   12   13 ar
    25   12   31 1
    26   13   14 ar
    27   13   32 1
    28   14   15 ar
    29   14   33 1
    30   15   34 1
    31   16   21 ar
    32   16   17 ar
    33   17   18 ar
    34   17   35 1
    35   18   19 ar
    36   18   36 1
    37   19   20 ar
    38   19   37 1
    39   20   21 ar
    40   20   38 1
    41   21   39 1
    42   22   40 1
@<TRIPOS>Similarity
2.0000
@<TRIPOS>ShapeSim
1.0000
@<TRIPOS>PharmSim
1.0000
# END
# Name:		ZINC01719019
# Created and modified by SHAFTS on Mon Jun 23 14:53:19 2014

# 

@<TRIPOS>MOLECULE
ZINC01719019
   40    42     0
SMALL
USER_CHARGE


@<TRIPOS>ATOM
      1 C1          1.3900    4.6782    6.3885 C.ar      1 <1>        -0.1088
      2 C2          2.7082    4.3178    6.1731 C.ar      1 <1>        -0.1054
      3 C3          3.1673    4.1047    4.8896 C.ar      1 <1>        -0.0970
      4 C4          2.2988    4.2530    3.8076 C.ar      1 <1>        -0.0949
      5 C5          0.9718    4.6218    4.0313 C.ar      1 <1>        -0.0988
      6 C6          0.5237    4.8264    5.3201 C.ar      1 <1>        -0.1066
      7 C7          2.7839    4.0262    2.4299 C.2       1 <1>        -0.0929
      8 C8          1.9564    4.1678    1.4040 C.2       1 <1>        -0.0753
      9 C9          2.4510    3.9366   -0.0006 C.3       1 <1>         0.0278
     10 C10         1.6589    2.8225   -0.6351 C.ar      1 <1>        -0.0583
     11 C11         2.3097    1.8220   -1.3324 C.ar      1 <1>        -0.0844
     12 C12         1.5832    0.8001   -1.9143 C.ar      1 <1>        -0.1030
     13 C13         0.2054    0.7816   -1.8036 C.ar      1 <1>        -0.1086
     14 C14        -0.4450    1.7793   -1.1018 C.ar      1 <1>        -0.1056
     15 C15         0.2816    2.8010   -0.5194 C.ar      1 <1>        -0.0897
     16 C16         2.2794    5.1977   -0.8076 C.ar      1 <1>        -0.0682
     17 C17         1.0696    5.8664   -0.7961 C.ar      1 <1>        -0.0952
     18 C18         0.9137    7.0258   -1.5325 C.ar      1 <1>        -0.1060
     19 C19         1.9643    7.5108   -2.2887 C.ar      1 <1>        -0.1083
     20 C20         3.1725    6.8393   -2.3043 C.ar      1 <1>        -0.1059
     21 C21         3.3300    5.6827   -1.5638 C.ar      1 <1>        -0.0940
     22 O1          3.8338    3.5779    0.0343 O.3       1 <1>        -0.4590
     23 H1          1.0357    4.8442    7.3951 H         1 <1>         0.1143
     24 H2          3.3794    4.2033    7.0114 H         1 <1>         0.1160
     25 H3          4.1966    3.8233    4.7227 H         1 <1>         0.1212
     26 H4          0.2958    4.7426    3.1977 H         1 <1>         0.1175
     27 H5         -0.5042    5.1077    5.4949 H         1 <1>         0.1153
     28 H6          3.8126    3.7450    2.2590 H         1 <1>         0.1235
     29 H7          0.9277    4.4490    1.5748 H         1 <1>         0.1150
     30 H8          3.3858    1.8388   -1.4227 H         1 <1>         0.1308
     31 H9          2.0916    0.0185   -2.4594 H         1 <1>         0.1152
     32 H10        -0.3626   -0.0144   -2.2620 H         1 <1>         0.1142
     33 H11        -1.5211    1.7626   -1.0117 H         1 <1>         0.1152
     34 H12        -0.2269    3.5825    0.0257 H         1 <1>         0.1175
     35 H13         0.2474    5.4850   -0.2088 H         1 <1>         0.1172
     36 H14        -0.0303    7.5503   -1.5206 H         1 <1>         0.1156
     37 H15         1.8412    8.4142   -2.8676 H         1 <1>         0.1146
     38 H16         3.9932    7.2180   -2.8954 H         1 <1>         0.1159
     39 H17         4.2738    5.1579   -1.5763 H         1 <1>         0.1234
     40 H18         4.4046    4.2502    0.4308 H         1 <1>         0.3359
@<TRIPOS>BOND
     1    1    6 ar
     2    1    2 ar
     3    1   23 1
     4    2    3 ar
     5    2   24 1
     6    3    4 ar
     7    3   25 1
     8    4    5 ar
     9    4    7 1
    10    5    6 ar
    11    5   26 1
    12    6   27 1
    13    7    8 2
    14    7   28 1
    15    8    9 1
    16    8   29 1
    17    9   10 1
    18    9   16 1
    19    9   22 1
    20   10   15 ar
    21   10   11 ar
    22   11   12 ar
    23   11   30 1
    24   12   13 ar
    25   12   31 1
    26   13   14 ar
    27   13   32 1
    28   14   15 ar
    29   14   33 1
    30   15   34 1
    31   16   21 ar
    32   16   17 ar
    33   17   18 ar
    34   17   35 1
    35   18   19 ar
    36   18   36 1
    37   19   20 ar
    38   19   37 1
    39   20   21 ar
    40   20   38 1
    41   21   39 1
    42   22   40 1
@<TRIPOS>Similarity
2.0000
@<TRIPOS>ShapeSim
1.0000
@<TRIPOS>PharmSim
1.0000
# END
# Name:		ZINC01719019
# Created and modified by SHAFTS on Mon Jun 23 14:53:19 2014

# 

@<TRIPOS>MOLECULE
ZINC01719019
   40    42     0
SMALL
USER_CHARGE


@<TRIPOS>ATOM
      1 C1          1.3900    4.6782    6.3885 C.ar      1 <1>        -0.1088
      2 C2          2.7082    4.3178    6.1731 C.ar      1 <1>        -0.1054
      3 C3          3.1673    4.1047    4.8896 C.ar      1 <1>        -0.0970
      4 C4          2.2988    4.2530    3.8076 C.ar      1 <1>        -0.0949
      5 C5          0.9718    4.6218    4.0313 C.ar      1 <1>        -0.0988
      6 C6          0.5237    4.8264    5.3201 C.ar      1 <1>        -0.1066
      7 C7          2.7839    4.0262    2.4299 C.2       1 <1>        -0.0929
      8 C8          1.9564    4.1678    1.4040 C.2       1 <1>        -0.0753
      9 C9          2.4510    3.9366   -0.0006 C.3       1 <1>         0.0278
     10 C10         1.6589    2.8225   -0.6351 C.ar      1 <1>        -0.0583
     11 C11         2.3097    1.8220   -1.3324 C.ar      1 <1>        -0.0844
     12 C12         1.5832    0.8001   -1.9143 C.ar      1 <1>        -0.1030
     13 C13         0.2054    0.7816   -1.8036 C.ar      1 <1>        -0.1086
     14 C14        -0.4450    1.7793   -1.1018 C.ar      1 <1>        -0.1056
     15 C15         0.2816    2.8010   -0.5194 C.ar      1 <1>        -0.0897
     16 C16         2.2794    5.1977   -0.8076 C.ar      1 <1>        -0.0682
     17 C17         1.0696    5.8664   -0.7961 C.ar      1 <1>        -0.0952
     18 C18         0.9137    7.0258   -1.5325 C.ar      1 <1>        -0.1060
     19 C19         1.9643    7.5108   -2.2887 C.ar      1 <1>        -0.1083
     20 C20         3.1725    6.8393   -2.3043 C.ar      1 <1>        -0.1059
     21 C21         3.3300    5.6827   -1.5638 C.ar      1 <1>        -0.0940
     22 O1          3.8338    3.5779    0.0343 O.3       1 <1>        -0.4590
     23 H1          1.0357    4.8442    7.3951 H         1 <1>         0.1143
     24 H2          3.3794    4.2033    7.0114 H         1 <1>         0.1160
     25 H3          4.1966    3.8233    4.7227 H         1 <1>         0.1212
     26 H4          0.2958    4.7426    3.1977 H         1 <1>         0.1175
     27 H5         -0.5042    5.1077    5.4949 H         1 <1>         0.1153
     28 H6          3.8126    3.7450    2.2590 H         1 <1>         0.1235
     29 H7          0.9277    4.4490    1.5748 H         1 <1>         0.1150
     30 H8          3.3858    1.8388   -1.4227 H         1 <1>         0.1308
     31 H9          2.0916    0.0185   -2.4594 H         1 <1>         0.1152
     32 H10        -0.3626   -0.0144   -2.2620 H         1 <1>         0.1142
     33 H11        -1.5211    1.7626   -1.0117 H         1 <1>         0.1152
     34 H12        -0.2269    3.5825    0.0257 H         1 <1>         0.1175
     35 H13         0.2474    5.4850   -0.2088 H         1 <1>         0.1172
     36 H14        -0.0303    7.5503   -1.5206 H         1 <1>         0.1156
     37 H15         1.8412    8.4142   -2.8676 H         1 <1>         0.1146
     38 H16         3.9932    7.2180   -2.8954 H         1 <1>         0.1159
     39 H17         4.2738    5.1579   -1.5763 H         1 <1>         0.1234
     40 H18         4.4046    4.2502    0.4308 H         1 <1>         0.3359
@<TRIPOS>BOND
     1    1    6 ar
     2    1    2 ar
     3    1   23 1
     4    2    3 ar
     5    2   24 1
     6    3    4 ar
     7    3   25 1
     8    4    5 ar
     9    4    7 1
    10    5    6 ar
    11    5   26 1
    12    6   27 1
    13    7    8 2
    14    7   28 1
    15    8    9 1
    16    8   29 1
    17    9   10 1
    18    9   16 1
    19    9   22 1
    20   10   15 ar
    21   10   11 ar
    22   11   12 ar
    23   11   30 1
    24   12   13 ar
    25   12   31 1
    26   13   14 ar
    27   13   32 1
    28   14   15 ar
    29   14   33 1
    30   15   34 1
    31   16   21 ar
    32   16   17 ar
    33   17   18 ar
    34   17   35 1
    35   18   19 ar
    36   18   36 1
    37   19   20 ar
    38   19   37 1
    39   20   21 ar
    40   20   38 1
    41   21   39 1
    42   22   40 1
@<TRIPOS>Similarity
2.0000
@<TRIPOS>ShapeSim
1.0000
@<TRIPOS>PharmSim
1.0000
# END
# Name:		ZINC01719019
# Created and modified by SHAFTS on Mon Jun 23 14:53:19 2014

# 

@<TRIPOS>MOLECULE
ZINC01719019
   40    42     0
SMALL
USER_CHARGE


@<TRIPOS>ATOM
      1 C1          1.3900    4.6782    6.3885 C.ar      1 <1>        -0.1088
      2 C2          2.7082    4.3178    6.1731 C.ar      1 <1>        -0.1054
      3 C3          3.1673    4.1047    4.8896 C.ar      1 <1>        -0.0970
      4 C4          2.2988    4.2530    3.8076 C.ar      1 <1>        -0.0949
      5 C5          0.9718    4.6218    4.0313 C.ar      1 <1>        -0.0988
      6 C6          0.5237    4.8264    5.3201 C.ar      1 <1>        -0.1066
      7 C7          2.7839    4.0262    2.4299 C.2       1 <1>        -0.0929
      8 C8          1.9564    4.1678    1.4040 C.2       1 <1>        -0.0753
      9 C9          2.4510    3.9366   -0.0006 C.3       1 <1>         0.0278
     10 C10         1.6589    2.8225   -0.6351 C.ar      1 <1>        -0.0583
     11 C11         2.3097    1.8220   -1.3324 C.ar      1 <1>        -0.0844
     12 C12         1.5832    0.8001   -1.9143 C.ar      1 <1>        -0.1030
     13 C13         0.2054    0.7816   -1.8036 C.ar      1 <1>        -0.1086
     14 C14        -0.4450    1.7793   -1.1018 C.ar      1 <1>        -0.1056
     15 C15         0.2816    2.8010   -0.5194 C.ar      1 <1>        -0.0897
     16 C16         2.2794    5.1977   -0.8076 C.ar      1 <1>        -0.0682
     17 C17         1.0696    5.8664   -0.7961 C.ar      1 <1>        -0.0952
     18 C18         0.9137    7.0258   -1.5325 C.ar      1 <1>        -0.1060
     19 C19         1.9643    7.5108   -2.2887 C.ar      1 <1>        -0.1083
     20 C20         3.1725    6.8393   -2.3043 C.ar      1 <1>        -0.1059
     21 C21         3.3300    5.6827   -1.5638 C.ar      1 <1>        -0.0940
     22 O1          3.8338    3.5779    0.0343 O.3       1 <1>        -0.4590
     23 H1          1.0357    4.8442    7.3951 H         1 <1>         0.1143
     24 H2          3.3794    4.2033    7.0114 H         1 <1>         0.1160
     25 H3          4.1966    3.8233    4.7227 H         1 <1>         0.1212
     26 H4          0.2958    4.7426    3.1977 H         1 <1>         0.1175
     27 H5         -0.5042    5.1077    5.4949 H         1 <1>         0.1153
     28 H6          3.8126    3.7450    2.2590 H         1 <1>         0.1235
     29 H7          0.9277    4.4490    1.5748 H         1 <1>         0.1150
     30 H8          3.3858    1.8388   -1.4227 H         1 <1>         0.1308
     31 H9          2.0916    0.0185   -2.4594 H         1 <1>         0.1152
     32 H10        -0.3626   -0.0144   -2.2620 H         1 <1>         0.1142
     33 H11        -1.5211    1.7626   -1.0117 H         1 <1>         0.1152
     34 H12        -0.2269    3.5825    0.0257 H         1 <1>         0.1175
     35 H13         0.2474    5.4850   -0.2088 H         1 <1>         0.1172
     36 H14        -0.0303    7.5503   -1.5206 H         1 <1>         0.1156
     37 H15         1.8412    8.4142   -2.8676 H         1 <1>         0.1146
     38 H16         3.9932    7.2180   -2.8954 H         1 <1>         0.1159
     39 H17         4.2738    5.1579   -1.5763 H         1 <1>         0.1234
     40 H18         4.4046    4.2502    0.4308 H         1 <1>         0.3359
@<TRIPOS>BOND
     1    1    6 ar
     2    1    2 ar
     3    1   23 1
     4    2    3 ar
     5    2   24 1
     6    3    4 ar
     7    3   25 1
     8    4    5 ar
     9    4    7 1
    10    5    6 ar
    11    5   26 1
    12    6   27 1
    13    7    8 2
    14    7   28 1
    15    8    9 1
    16    8   29 1
    17    9   10 1
    18    9   16 1
    19    9   22 1
    20   10   15 ar
    21   10   11 ar
    22   11   12 ar
    23   11   30 1
    24   12   13 ar
    25   12   31 1
    26   13   14 ar
    27   13   32 1
    28   14   15 ar
    29   14   33 1
    30   15   34 1
    31   16   21 ar
    32   16   17 ar
    33   17   18 ar
    34   17   35 1
    35   18   19 ar
    36   18   36 1
    37   19   20 ar
    38   19   37 1
    39   20   21 ar
    40   20   38 1
    41   21   39 1
    42   22   40 1
@<TRIPOS>Similarity
2.0000
@<TRIPOS>ShapeSim
1.0000
@<TRIPOS>PharmSim
1.0000
# END
# Name:		ZINC01719019
# Created and modified by SHAFTS on Mon Jun 23 14:53:19 2014

# 

@<TRIPOS>MOLECULE
ZINC01719019
   40    42     0
SMALL
USER_CHARGE


@<TRIPOS>ATOM
      1 C1          1.3900    4.6782    6.3885 C.ar      1 <1>        -0.1088
      2 C2          2.7082    4.3178    6.1731 C.ar      1 <1>        -0.1054
      3 C3          3.1673    4.1047    4.8896 C.ar      1 <1>        -0.0970
      4 C4          2.2988    4.2530    3.8076 C.ar      1 <1>        -0.0949
      5 C5          0.9718    4.6218    4.0313 C.ar      1 <1>        -0.0988
      6 C6          0.5237    4.8264    5.3201 C.ar      1 <1>        -0.1066
      7 C7          2.7839    4.0262    2.4299 C.2       1 <1>        -0.0929
      8 C8          1.9564    4.1678    1.4040 C.2       1 <1>        -0.0753
      9 C9          2.4510    3.9366   -0.0006 C.3       1 <1>         0.0278
     10 C10         1.6589    2.8225   -0.6351 C.ar      1 <1>        -0.0583
     11 C11         2.3097    1.8220   -1.3324 C.ar      1 <1>        -0.0844
     12 C12         1.5832    0.8001   -1.9143 C.ar      1 <1>        -0.1030
     13 C13         0.2054    0.7816   -1.8036 C.ar      1 <1>        -0.1086
     14 C14        -0.4450    1.7793   -1.1018 C.ar      1 <1>        -0.1056
     15 C15         0.2816    2.8010   -0.5194 C.ar      1 <1>        -0.0897
     16 C16         2.2794    5.1977   -0.8076 C.ar      1 <1>        -0.0682
     17 C17         1.0696    5.8664   -0.7961 C.ar      1 <1>        -0.0952
     18 C18         0.9137    7.0258   -1.5325 C.ar      1 <1>        -0.1060
     19 C19         1.9643    7.5108   -2.2887 C.ar      1 <1>        -0.1083
     20 C20         3.1725    6.8393   -2.3043 C.ar      1 <1>        -0.1059
     21 C21         3.3300    5.6827   -1.5638 C.ar      1 <1>        -0.0940
     22 O1          3.8338    3.5779    0.0343 O.3       1 <1>        -0.4590
     23 H1          1.0357    4.8442    7.3951 H         1 <1>         0.1143
     24 H2          3.3794    4.2033    7.0114 H         1 <1>         0.1160
     25 H3          4.1966    3.8233    4.7227 H         1 <1>         0.1212
     26 H4          0.2958    4.7426    3.1977 H         1 <1>         0.1175
     27 H5         -0.5042    5.1077    5.4949 H         1 <1>         0.1153
     28 H6          3.8126    3.7450    2.2590 H         1 <1>         0.1235
     29 H7          0.9277    4.4490    1.5748 H         1 <1>         0.1150
     30 H8          3.3858    1.8388   -1.4227 H         1 <1>         0.1308
     31 H9          2.0916    0.0185   -2.4594 H         1 <1>         0.1152
     32 H10        -0.3626   -0.0144   -2.2620 H         1 <1>         0.1142
     33 H11        -1.5211    1.7626   -1.0117 H         1 <1>         0.1152
     34 H12        -0.2269    3.5825    0.0257 H         1 <1>         0.1175
     35 H13         0.2474    5.4850   -0.2088 H         1 <1>         0.1172
     36 H14        -0.0303    7.5503   -1.5206 H         1 <1>         0.1156
     37 H15         1.8412    8.4142   -2.8676 H         1 <1>         0.1146
     38 H16         3.9932    7.2180   -2.8954 H         1 <1>         0.1159
     39 H17         4.2738    5.1579   -1.5763 H         1 <1>         0.1234
     40 H18         4.4046    4.2502    0.4308 H         1 <1>         0.3359
@<TRIPOS>BOND
     1    1    6 ar
     2    1    2 ar
     3    1   23 1
     4    2    3 ar
     5    2   24 1
     6    3    4 ar
     7    3   25 1
     8    4    5 ar
     9    4    7 1
    10    5    6 ar
    11    5   26 1
    12    6   27 1
    13    7    8 2
    14    7   28 1
    15    8    9 1
    16    8   29 1
    17    9   10 1
    18    9   16 1
    19    9   22 1
    20   10   15 ar
    21   10   11 ar
    22   11   12 ar
    23   11   30 1
    24   12   13 ar
    25   12   31 1
    26   13   14 ar
    27   13   32 1
    28   14   15 ar
    29   14   33 1
    30   15   34 1
    31   16   21 ar
    32   16   17 ar
    33   17   18 ar
    34   17   35 1
    35   18   19 ar
    36   18   36 1
    37   19   20 ar
    38   19   37 1
    39   20   21 ar
    40   20   38 1
    41   21   39 1
    42   22   40 1
@<TRIPOS>Similarity
2.0000
@<TRIPOS>ShapeSim
1.0000
@<TRIPOS>PharmSim
1.0000
# END
# Name:		ZINC03852038
# Created and modified by SHAFTS on Mon Jun 23 14:53:19 2014

# 

@<TRIPOS>MOLECULE
ZINC03852038
   38    41     0
SMALL
USER_CHARGE


@<TRIPOS>ATOM
      1 C1          1.5134    4.9324    6.8356 C.ar      1 <1>        -0.1098
      2 C2          2.6856    4.2843    6.4899 C.ar      1 <1>        -0.0994
      3 C3          2.9135    3.9173    5.1793 C.ar      1 <1>        -0.0791
      4 C4          1.9599    4.2011    4.2028 C.ar      1 <1>        -0.0619
      5 C5          0.7802    4.8539    4.5572 C.ar      1 <1>        -0.0884
      6 C6          0.5631    5.2158    5.8711 C.ar      1 <1>        -0.1065
      7 C7          2.1990    3.8092    2.7930 C.2       1 <1>        -0.0194
      8 C8          1.3494    3.1244    1.9831 C.2       1 <1>        -0.0171
      9 N1          1.9283    2.9599    0.7547 N.pl3     1 <1>        -0.3054
     10 C9          3.1741    3.5254    0.7374 C.2       1 <1>         0.0431
     11 C10         3.3998    4.0777    1.9993 C.2       1 <1>         0.0572
     12 C11         4.6751    4.7523    2.2508 C.2       1 <1>         0.0025
     13 N2          4.9458    5.2916    3.4162 N.2       1 <1>        -0.4320
     14 N3          5.5824    4.7971    1.2067 N.pl3     1 <1>        -0.4555
     15 C12         5.2621    4.2262    0.0147 C.2       1 <1>         0.0258
     16 N4          4.1297    3.6289   -0.2040 N.2       1 <1>        -0.3385
     17 N5          6.7917    5.4105    1.3725 N.3       1 <1>         0.3831
     18 C13         1.3331    2.3007   -0.3293 C.ar      1 <1>        -0.0141
     19 C14         1.2960    2.9081   -1.5773 C.ar      1 <1>        -0.0460
     20 C15         0.7134    2.2541   -2.6452 C.ar      1 <1>        -0.0576
     21 C16         0.1573    0.9991   -2.4697 C.ar      1 <1>        -0.0088
     22 C17         0.1883    0.3938   -1.2256 C.ar      1 <1>        -0.0602
     23 C18         0.7743    1.0415   -0.1557 C.ar      1 <1>        -0.0492
     24 Cl1        -0.5801    0.1824   -3.8124 Cl        1 <1>        -0.1378
     25 H1          1.3392    5.2178    7.8625 H         1 <1>         0.1104
     26 H2          3.4258    4.0693    7.2463 H         1 <1>         0.1128
     27 H3          3.8293    3.4117    4.9104 H         1 <1>         0.1297
     28 H4          0.0380    5.0763    3.8050 H         1 <1>         0.1186
     29 H5         -0.3504    5.7216    6.1469 H         1 <1>         0.1111
     30 H6          0.3695    2.7678    2.2645 H         1 <1>         0.2059
     31 H7          5.7972    5.7334    3.5601 H         1 <1>         0.2513
     32 H8          5.9835    4.2714   -0.7878 H         1 <1>         0.3046
     33 H9          7.4854    4.7580    1.7059 H         1 <1>         0.0189
     34 H10         7.0930    5.8529    0.5171 H         1 <1>         0.0313
     35 H11         1.7260    3.8893   -1.7138 H         1 <1>         0.1479
     36 H12         0.6884    2.7242   -3.6172 H         1 <1>         0.1437
     37 H13        -0.2464   -0.5855   -1.0910 H         1 <1>         0.1434
     38 H14         0.7976    0.5691    0.8152 H         1 <1>         0.1452
@<TRIPOS>BOND
     1    1    6 ar
     2    1    2 ar
     3    1   25 1
     4    2    3 ar
     5    2   26 1
     6    3    4 ar
     7    3   27 1
     8    4    5 ar
     9    4    7 1
    10    5    6 ar
    11    5   28 1
    12    6   29 1
    13    7   11 1
    14    7    8 2
    15    8    9 1
    16    8   30 1
    17    9   10 1
    18    9   18 1
    19   10   16 1
    20   10   11 2
    21   11   12 1
    22   12   13 2
    23   12   14 1
    24   13   31 1
    25   14   15 1
    26   14   17 1
    27   15   16 2
    28   15   32 1
    29   17   33 1
    30   17   34 1
    31   18   23 ar
    32   18   19 ar
    33   19   20 ar
    34   19   35 1
    35   20   21 ar
    36   20   36 1
    37   21   22 ar
    38   21   24 1
    39   22   23 ar
    40   22   37 1
    41   23   38 1
@<TRIPOS>Similarity
1.1749
@<TRIPOS>ShapeSim
0.6571
@<TRIPOS>PharmSim
0.5177
# END
# Name:		ZINC03852038
# Created and modified by SHAFTS on Mon Jun 23 14:53:19 2014

# 

@<TRIPOS>MOLECULE
ZINC03852038
   38    41     0
SMALL
USER_CHARGE


@<TRIPOS>ATOM
      1 C1          1.5134    4.9324    6.8356 C.ar      1 <1>        -0.1098
      2 C2          2.6856    4.2843    6.4899 C.ar      1 <1>        -0.0994
      3 C3          2.9135    3.9173    5.1793 C.ar      1 <1>        -0.0791
      4 C4          1.9599    4.2011    4.2028 C.ar      1 <1>        -0.0619
      5 C5          0.7802    4.8539    4.5572 C.ar      1 <1>        -0.0884
      6 C6          0.5631    5.2158    5.8711 C.ar      1 <1>        -0.1065
      7 C7          2.1990    3.8092    2.7930 C.2       1 <1>        -0.0194
      8 C8          1.3494    3.1244    1.9831 C.2       1 <1>        -0.0171
      9 N1          1.9283    2.9599    0.7547 N.pl3     1 <1>        -0.3054
     10 C9          3.1741    3.5254    0.7374 C.2       1 <1>         0.0431
     11 C10         3.3998    4.0777    1.9993 C.2       1 <1>         0.0572
     12 C11         4.6751    4.7523    2.2508 C.2       1 <1>         0.0025
     13 N2          4.9458    5.2916    3.4162 N.2       1 <1>        -0.4320
     14 N3          5.5824    4.7971    1.2067 N.pl3     1 <1>        -0.4555
     15 C12         5.2621    4.2262    0.0147 C.2       1 <1>         0.0258
     16 N4          4.1297    3.6289   -0.2040 N.2       1 <1>        -0.3385
     17 N5          6.7917    5.4105    1.3725 N.3       1 <1>         0.3831
     18 C13         1.3331    2.3007   -0.3293 C.ar      1 <1>        -0.0141
     19 C14         1.2960    2.9081   -1.5773 C.ar      1 <1>        -0.0460
     20 C15         0.7134    2.2541   -2.6452 C.ar      1 <1>        -0.0576
     21 C16         0.1573    0.9991   -2.4697 C.ar      1 <1>        -0.0088
     22 C17         0.1883    0.3938   -1.2256 C.ar      1 <1>        -0.0602
     23 C18         0.7743    1.0415   -0.1557 C.ar      1 <1>        -0.0492
     24 Cl1        -0.5801    0.1824   -3.8124 Cl        1 <1>        -0.1378
     25 H1          1.3392    5.2178    7.8625 H         1 <1>         0.1104
     26 H2          3.4258    4.0693    7.2463 H         1 <1>         0.1128
     27 H3          3.8293    3.4117    4.9104 H         1 <1>         0.1297
     28 H4          0.0380    5.0763    3.8050 H         1 <1>         0.1186
     29 H5         -0.3504    5.7216    6.1469 H         1 <1>         0.1111
     30 H6          0.3695    2.7678    2.2645 H         1 <1>         0.2059
     31 H7          5.7972    5.7334    3.5601 H         1 <1>         0.2513
     32 H8          5.9835    4.2714   -0.7878 H         1 <1>         0.3046
     33 H9          7.4854    4.7580    1.7059 H         1 <1>         0.0189
     34 H10         7.0930    5.8529    0.5171 H         1 <1>         0.0313
     35 H11         1.7260    3.8893   -1.7138 H         1 <1>         0.1479
     36 H12         0.6884    2.7242   -3.6172 H         1 <1>         0.1437
     37 H13        -0.2464   -0.5855   -1.0910 H         1 <1>         0.1434
     38 H14         0.7976    0.5691    0.8152 H         1 <1>         0.1452
@<TRIPOS>BOND
     1    1    6 ar
     2    1    2 ar
     3    1   25 1
     4    2    3 ar
     5    2   26 1
     6    3    4 ar
     7    3   27 1
     8    4    5 ar
     9    4    7 1
    10    5    6 ar
    11    5   28 1
    12    6   29 1
    13    7   11 1
    14    7    8 2
    15    8    9 1
    16    8   30 1
    17    9   10 1
    18    9   18 1
    19   10   16 1
    20   10   11 2
    21   11   12 1
    22   12   13 2
    23   12   14 1
    24   13   31 1
    25   14   15 1
    26   14   17 1
    27   15   16 2
    28   15   32 1
    29   17   33 1
    30   17   34 1
    31   18   23 ar
    32   18   19 ar
    33   19   20 ar
    34   19   35 1
    35   20   21 ar
    36   20   36 1
    37   21   22 ar
    38   21   24 1
    39   22   23 ar
    40   22   37 1
    41   23   38 1
@<TRIPOS>Similarity
1.1749
@<TRIPOS>ShapeSim
0.6571
@<TRIPOS>PharmSim
0.5177
# END
# Name:		ZINC03852038
# Created and modified by SHAFTS on Mon Jun 23 14:53:19 2014

# 

@<TRIPOS>MOLECULE
ZINC03852038
   38    41     0
SMALL
USER_CHARGE


@<TRIPOS>ATOM
      1 C1          1.5134    4.9324    6.8356 C.ar      1 <1>        -0.1098
      2 C2          2.6856    4.2843    6.4899 C.ar      1 <1>        -0.0994
      3 C3          2.9135    3.9173    5.1793 C.ar      1 <1>        -0.0791
      4 C4          1.9599    4.2011    4.2028 C.ar      1 <1>        -0.0619
      5 C5          0.7802    4.8539    4.5572 C.ar      1 <1>        -0.0884
      6 C6          0.5631    5.2158    5.8711 C.ar      1 <1>        -0.1065
      7 C7          2.1990    3.8092    2.7930 C.2       1 <1>        -0.0194
      8 C8          1.3494    3.1244    1.9831 C.2       1 <1>        -0.0171
      9 N1          1.9283    2.9599    0.7547 N.pl3     1 <1>        -0.3054
     10 C9          3.1741    3.5254    0.7374 C.2       1 <1>         0.0431
     11 C10         3.3998    4.0777    1.9993 C.2       1 <1>         0.0572
     12 C11         4.6751    4.7523    2.2508 C.2       1 <1>         0.0025
     13 N2          4.9458    5.2916    3.4162 N.2       1 <1>        -0.4320
     14 N3          5.5824    4.7971    1.2067 N.pl3     1 <1>        -0.4555
     15 C12         5.2621    4.2262    0.0147 C.2       1 <1>         0.0258
     16 N4          4.1297    3.6289   -0.2040 N.2       1 <1>        -0.3385
     17 N5          6.7917    5.4105    1.3725 N.3       1 <1>         0.3831
     18 C13         1.3331    2.3007   -0.3293 C.ar      1 <1>        -0.0141
     19 C14         1.2960    2.9081   -1.5773 C.ar      1 <1>        -0.0460
     20 C15         0.7134    2.2541   -2.6452 C.ar      1 <1>        -0.0576
     21 C16         0.1573    0.9991   -2.4697 C.ar      1 <1>        -0.0088
     22 C17         0.1883    0.3938   -1.2256 C.ar      1 <1>        -0.0602
     23 C18         0.7743    1.0415   -0.1557 C.ar      1 <1>        -0.0492
     24 Cl1        -0.5801    0.1824   -3.8124 Cl        1 <1>        -0.1378
     25 H1          1.3392    5.2178    7.8625 H         1 <1>         0.1104
     26 H2          3.4258    4.0693    7.2463 H         1 <1>         0.1128
     27 H3          3.8293    3.4117    4.9104 H         1 <1>         0.1297
     28 H4          0.0380    5.0763    3.8050 H         1 <1>         0.1186
     29 H5         -0.3504    5.7216    6.1469 H         1 <1>         0.1111
     30 H6          0.3695    2.7678    2.2645 H         1 <1>         0.2059
     31 H7          5.7972    5.7334    3.5601 H         1 <1>         0.2513
     32 H8          5.9835    4.2714   -0.7878 H         1 <1>         0.3046
     33 H9          7.4854    4.7580    1.7059 H         1 <1>         0.0189
     34 H10         7.0930    5.8529    0.5171 H         1 <1>         0.0313
     35 H11         1.7260    3.8893   -1.7138 H         1 <1>         0.1479
     36 H12         0.6884    2.7242   -3.6172 H         1 <1>         0.1437
     37 H13        -0.2464   -0.5855   -1.0910 H         1 <1>         0.1434
     38 H14         0.7976    0.5691    0.8152 H         1 <1>         0.1452
@<TRIPOS>BOND
     1    1    6 ar
     2    1    2 ar
     3    1   25 1
     4    2    3 ar
     5    2   26 1
     6    3    4 ar
     7    3   27 1
     8    4    5 ar
     9    4    7 1
    10    5    6 ar
    11    5   28 1
    12    6   29 1
    13    7   11 1
    14    7    8 2
    15    8    9 1
    16    8   30 1
    17    9   10 1
    18    9   18 1
    19   10   16 1
    20   10   11 2
    21   11   12 1
    22   12   13 2
    23   12   14 1
    24   13   31 1
    25   14   15 1
    26   14   17 1
    27   15   16 2
    28   15   32 1
    29   17   33 1
    30   17   34 1
    31   18   23 ar
    32   18   19 ar
    33   19   20 ar
    34   19   35 1
    35   20   21 ar
    36   20   36 1
    37   21   22 ar
    38   21   24 1
    39   22   23 ar
    40   22   37 1
    41   23   38 1
@<TRIPOS>Similarity
1.1749
@<TRIPOS>ShapeSim
0.6571
@<TRIPOS>PharmSim
0.5177
# END
# Name:		ZINC03852038
# Created and modified by SHAFTS on Mon Jun 23 14:53:19 2014

# 

@<TRIPOS>MOLECULE
ZINC03852038
   38    41     0
SMALL
USER_CHARGE


@<TRIPOS>ATOM
      1 C1          1.5134    4.9324    6.8356 C.ar      1 <1>        -0.1098
      2 C2          2.6856    4.2843    6.4899 C.ar      1 <1>        -0.0994
      3 C3          2.9135    3.9173    5.1793 C.ar      1 <1>        -0.0791
      4 C4          1.9599    4.2011    4.2028 C.ar      1 <1>        -0.0619
      5 C5          0.7802    4.8539    4.5572 C.ar      1 <1>        -0.0884
      6 C6          0.5631    5.2158    5.8711 C.ar      1 <1>        -0.1065
      7 C7          2.1990    3.8092    2.7930 C.2       1 <1>        -0.0194
      8 C8          1.3494    3.1244    1.9831 C.2       1 <1>        -0.0171
      9 N1          1.9283    2.9599    0.7547 N.pl3     1 <1>        -0.3054
     10 C9          3.1741    3.5254    0.7374 C.2       1 <1>         0.0431
     11 C10         3.3998    4.0777    1.9993 C.2       1 <1>         0.0572
     12 C11         4.6751    4.7523    2.2508 C.2       1 <1>         0.0025
     13 N2          4.9458    5.2916    3.4162 N.2       1 <1>        -0.4320
     14 N3          5.5824    4.7971    1.2067 N.pl3     1 <1>        -0.4555
     15 C12         5.2621    4.2262    0.0147 C.2       1 <1>         0.0258
     16 N4          4.1297    3.6289   -0.2040 N.2       1 <1>        -0.3385
     17 N5          6.7917    5.4105    1.3725 N.3       1 <1>         0.3831
     18 C13         1.3331    2.3007   -0.3293 C.ar      1 <1>        -0.0141
     19 C14         1.2960    2.9081   -1.5773 C.ar      1 <1>        -0.0460
     20 C15         0.7134    2.2541   -2.6452 C.ar      1 <1>        -0.0576
     21 C16         0.1573    0.9991   -2.4697 C.ar      1 <1>        -0.0088
     22 C17         0.1883    0.3938   -1.2256 C.ar      1 <1>        -0.0602
     23 C18         0.7743    1.0415   -0.1557 C.ar      1 <1>        -0.0492
     24 Cl1        -0.5801    0.1824   -3.8124 Cl        1 <1>        -0.1378
     25 H1          1.3392    5.2178    7.8625 H         1 <1>         0.1104
     26 H2          3.4258    4.0693    7.2463 H         1 <1>         0.1128
     27 H3          3.8293    3.4117    4.9104 H         1 <1>         0.1297
     28 H4          0.0380    5.0763    3.8050 H         1 <1>         0.1186
     29 H5         -0.3504    5.7216    6.1469 H         1 <1>         0.1111
     30 H6          0.3695    2.7678    2.2645 H         1 <1>         0.2059
     31 H7          5.7972    5.7334    3.5601 H         1 <1>         0.2513
     32 H8          5.9835    4.2714   -0.7878 H         1 <1>         0.3046
     33 H9          7.4854    4.7580    1.7059 H         1 <1>         0.0189
     34 H10         7.0930    5.8529    0.5171 H         1 <1>         0.0313
     35 H11         1.7260    3.8893   -1.7138 H         1 <1>         0.1479
     36 H12         0.6884    2.7242   -3.6172 H         1 <1>         0.1437
     37 H13        -0.2464   -0.5855   -1.0910 H         1 <1>         0.1434
     38 H14         0.7976    0.5691    0.8152 H         1 <1>         0.1452
@<TRIPOS>BOND
     1    1    6 ar
     2    1    2 ar
     3    1   25 1
     4    2    3 ar
     5    2   26 1
     6    3    4 ar
     7    3   27 1
     8    4    5 ar
     9    4    7 1
    10    5    6 ar
    11    5   28 1
    12    6   29 1
    13    7   11 1
    14    7    8 2
    15    8    9 1
    16    8   30 1
    17    9   10 1
    18    9   18 1
    19   10   16 1
    20   10   11 2
    21   11   12 1
    22   12   13 2
    23   12   14 1
    24   13   31 1
    25   14   15 1
    26   14   17 1
    27   15   16 2
    28   15   32 1
    29   17   33 1
    30   17   34 1
    31   18   23 ar
    32   18   19 ar
    33   19   20 ar
    34   19   35 1
    35   20   21 ar
    36   20   36 1
    37   21   22 ar
    38   21   24 1
    39   22   23 ar
    40   22   37 1
    41   23   38 1
@<TRIPOS>Similarity
1.1749
@<TRIPOS>ShapeSim
0.6571
@<TRIPOS>PharmSim
0.5177
# END
# Name:		ZINC03852038
# Created and modified by SHAFTS on Mon Jun 23 14:53:19 2014

# 

@<TRIPOS>MOLECULE
ZINC03852038
   38    41     0
SMALL
USER_CHARGE


@<TRIPOS>ATOM
      1 C1          1.5134    4.9324    6.8356 C.ar      1 <1>        -0.1098
      2 C2          2.6856    4.2843    6.4899 C.ar      1 <1>        -0.0994
      3 C3          2.9135    3.9173    5.1793 C.ar      1 <1>        -0.0791
      4 C4          1.9599    4.2011    4.2028 C.ar      1 <1>        -0.0619
      5 C5          0.7802    4.8539    4.5572 C.ar      1 <1>        -0.0884
      6 C6          0.5631    5.2158    5.8711 C.ar      1 <1>        -0.1065
      7 C7          2.1990    3.8092    2.7930 C.2       1 <1>        -0.0194
      8 C8          1.3494    3.1244    1.9831 C.2       1 <1>        -0.0171
      9 N1          1.9283    2.9599    0.7547 N.pl3     1 <1>        -0.3054
     10 C9          3.1741    3.5254    0.7374 C.2       1 <1>         0.0431
     11 C10         3.3998    4.0777    1.9993 C.2       1 <1>         0.0572
     12 C11         4.6751    4.7523    2.2508 C.2       1 <1>         0.0025
     13 N2          4.9458    5.2916    3.4162 N.2       1 <1>        -0.4320
     14 N3          5.5824    4.7971    1.2067 N.pl3     1 <1>        -0.4555
     15 C12         5.2621    4.2262    0.0147 C.2       1 <1>         0.0258
     16 N4          4.1297    3.6289   -0.2040 N.2       1 <1>        -0.3385
     17 N5          6.7917    5.4105    1.3725 N.3       1 <1>         0.3831
     18 C13         1.3331    2.3007   -0.3293 C.ar      1 <1>        -0.0141
     19 C14         1.2960    2.9081   -1.5773 C.ar      1 <1>        -0.0460
     20 C15         0.7134    2.2541   -2.6452 C.ar      1 <1>        -0.0576
     21 C16         0.1573    0.9991   -2.4697 C.ar      1 <1>        -0.0088
     22 C17         0.1883    0.3938   -1.2256 C.ar      1 <1>        -0.0602
     23 C18         0.7743    1.0415   -0.1557 C.ar      1 <1>        -0.0492
     24 Cl1        -0.5801    0.1824   -3.8124 Cl        1 <1>        -0.1378
     25 H1          1.3392    5.2178    7.8625 H         1 <1>         0.1104
     26 H2          3.4258    4.0693    7.2463 H         1 <1>         0.1128
     27 H3          3.8293    3.4117    4.9104 H         1 <1>         0.1297
     28 H4          0.0380    5.0763    3.8050 H         1 <1>         0.1186
     29 H5         -0.3504    5.7216    6.1469 H         1 <1>         0.1111
     30 H6          0.3695    2.7678    2.2645 H         1 <1>         0.2059
     31 H7          5.7972    5.7334    3.5601 H         1 <1>         0.2513
     32 H8          5.9835    4.2714   -0.7878 H         1 <1>         0.3046
     33 H9          7.4854    4.7580    1.7059 H         1 <1>         0.0189
     34 H10         7.0930    5.8529    0.5171 H         1 <1>         0.0313
     35 H11         1.7260    3.8893   -1.7138 H         1 <1>         0.1479
     36 H12         0.6884    2.7242   -3.6172 H         1 <1>         0.1437
     37 H13        -0.2464   -0.5855   -1.0910 H         1 <1>         0.1434
     38 H14         0.7976    0.5691    0.8152 H         1 <1>         0.1452
@<TRIPOS>BOND
     1    1    6 ar
     2    1    2 ar
     3    1   25 1
     4    2    3 ar
     5    2   26 1
     6    3    4 ar
     7    3   27 1
     8    4    5 ar
     9    4    7 1
    10    5    6 ar
    11    5   28 1
    12    6   29 1
    13    7   11 1
    14    7    8 2
    15    8    9 1
    16    8   30 1
    17    9   10 1
    18    9   18 1
    19   10   16 1
    20   10   11 2
    21   11   12 1
    22   12   13 2
    23   12   14 1
    24   13   31 1
    25   14   15 1
    26   14   17 1
    27   15   16 2
    28   15   32 1
    29   17   33 1
    30   17   34 1
    31   18   23 ar
    32   18   19 ar
    33   19   20 ar
    34   19   35 1
    35   20   21 ar
    36   20   36 1
    37   21   22 ar
    38   21   24 1
    39   22   23 ar
    40   22   37 1
    41   23   38 1
@<TRIPOS>Similarity
1.1749
@<TRIPOS>ShapeSim
0.6571
@<TRIPOS>PharmSim
0.5177
# END
# Name:		ZINC03852038
# Created and modified by SHAFTS on Mon Jun 23 14:53:19 2014

# 

@<TRIPOS>MOLECULE
ZINC03852038
   38    41     0
SMALL
USER_CHARGE


@<TRIPOS>ATOM
      1 C1          1.5134    4.9324    6.8356 C.ar      1 <1>        -0.1098
      2 C2          2.6856    4.2843    6.4899 C.ar      1 <1>        -0.0994
      3 C3          2.9135    3.9173    5.1793 C.ar      1 <1>        -0.0791
      4 C4          1.9599    4.2011    4.2028 C.ar      1 <1>        -0.0619
      5 C5          0.7802    4.8539    4.5572 C.ar      1 <1>        -0.0884
      6 C6          0.5631    5.2158    5.8711 C.ar      1 <1>        -0.1065
      7 C7          2.1990    3.8092    2.7930 C.2       1 <1>        -0.0194
      8 C8          1.3494    3.1244    1.9831 C.2       1 <1>        -0.0171
      9 N1          1.9283    2.9599    0.7547 N.pl3     1 <1>        -0.3054
     10 C9          3.1741    3.5254    0.7374 C.2       1 <1>         0.0431
     11 C10         3.3998    4.0777    1.9993 C.2       1 <1>         0.0572
     12 C11         4.6751    4.7523    2.2508 C.2       1 <1>         0.0025
     13 N2          4.9458    5.2916    3.4162 N.2       1 <1>        -0.4320
     14 N3          5.5824    4.7971    1.2067 N.pl3     1 <1>        -0.4555
     15 C12         5.2621    4.2262    0.0147 C.2       1 <1>         0.0258
     16 N4          4.1297    3.6289   -0.2040 N.2       1 <1>        -0.3385
     17 N5          6.7917    5.4105    1.3725 N.3       1 <1>         0.3831
     18 C13         1.3331    2.3007   -0.3293 C.ar      1 <1>        -0.0141
     19 C14         1.2960    2.9081   -1.5773 C.ar      1 <1>        -0.0460
     20 C15         0.7134    2.2541   -2.6452 C.ar      1 <1>        -0.0576
     21 C16         0.1573    0.9991   -2.4697 C.ar      1 <1>        -0.0088
     22 C17         0.1883    0.3938   -1.2256 C.ar      1 <1>        -0.0602
     23 C18         0.7743    1.0415   -0.1557 C.ar      1 <1>        -0.0492
     24 Cl1        -0.5801    0.1824   -3.8124 Cl        1 <1>        -0.1378
     25 H1          1.3392    5.2178    7.8625 H         1 <1>         0.1104
     26 H2          3.4258    4.0693    7.2463 H         1 <1>         0.1128
     27 H3          3.8293    3.4117    4.9104 H         1 <1>         0.1297
     28 H4          0.0380    5.0763    3.8050 H         1 <1>         0.1186
     29 H5         -0.3504    5.7216    6.1469 H         1 <1>         0.1111
     30 H6          0.3695    2.7678    2.2645 H         1 <1>         0.2059
     31 H7          5.7972    5.7334    3.5601 H         1 <1>         0.2513
     32 H8          5.9835    4.2714   -0.7878 H         1 <1>         0.3046
     33 H9          7.4854    4.7580    1.7059 H         1 <1>         0.0189
     34 H10         7.0930    5.8529    0.5171 H         1 <1>         0.0313
     35 H11         1.7260    3.8893   -1.7138 H         1 <1>         0.1479
     36 H12         0.6884    2.7242   -3.6172 H         1 <1>         0.1437
     37 H13        -0.2464   -0.5855   -1.0910 H         1 <1>         0.1434
     38 H14         0.7976    0.5691    0.8152 H         1 <1>         0.1452
@<TRIPOS>BOND
     1    1    6 ar
     2    1    2 ar
     3    1   25 1
     4    2    3 ar
     5    2   26 1
     6    3    4 ar
     7    3   27 1
     8    4    5 ar
     9    4    7 1
    10    5    6 ar
    11    5   28 1
    12    6   29 1
    13    7   11 1
    14    7    8 2
    15    8    9 1
    16    8   30 1
    17    9   10 1
    18    9   18 1
    19   10   16 1
    20   10   11 2
    21   11   12 1
    22   12   13 2
    23   12   14 1
    24   13   31 1
    25   14   15 1
    26   14   17 1
    27   15   16 2
    28   15   32 1
    29   17   33 1
    30   17   34 1
    31   18   23 ar
    32   18   19 ar
    33   19   20 ar
    34   19   35 1
    35   20   21 ar
    36   20   36 1
    37   21   22 ar
    38   21   24 1
    39   22   23 ar
    40   22   37 1
    41   23   38 1
@<TRIPOS>Similarity
1.1749
@<TRIPOS>ShapeSim
0.6571
@<TRIPOS>PharmSim
0.5177
# END
# Name:		ZINC03852038
# Created and modified by SHAFTS on Mon Jun 23 14:53:19 2014

# 

@<TRIPOS>MOLECULE
ZINC03852038
   38    41     0
SMALL
USER_CHARGE


@<TRIPOS>ATOM
      1 C1          1.5134    4.9324    6.8356 C.ar      1 <1>        -0.1098
      2 C2          2.6856    4.2843    6.4899 C.ar      1 <1>        -0.0994
      3 C3          2.9135    3.9173    5.1793 C.ar      1 <1>        -0.0791
      4 C4          1.9599    4.2011    4.2028 C.ar      1 <1>        -0.0619
      5 C5          0.7802    4.8539    4.5572 C.ar      1 <1>        -0.0884
      6 C6          0.5631    5.2158    5.8711 C.ar      1 <1>        -0.1065
      7 C7          2.1990    3.8092    2.7930 C.2       1 <1>        -0.0194
      8 C8          1.3494    3.1244    1.9831 C.2       1 <1>        -0.0171
      9 N1          1.9283    2.9599    0.7547 N.pl3     1 <1>        -0.3054
     10 C9          3.1741    3.5254    0.7374 C.2       1 <1>         0.0431
     11 C10         3.3998    4.0777    1.9993 C.2       1 <1>         0.0572
     12 C11         4.6751    4.7523    2.2508 C.2       1 <1>         0.0025
     13 N2          4.9458    5.2916    3.4162 N.2       1 <1>        -0.4320
     14 N3          5.5824    4.7971    1.2067 N.pl3     1 <1>        -0.4555
     15 C12         5.2621    4.2262    0.0147 C.2       1 <1>         0.0258
     16 N4          4.1297    3.6289   -0.2040 N.2       1 <1>        -0.3385
     17 N5          6.7917    5.4105    1.3725 N.3       1 <1>         0.3831
     18 C13         1.3331    2.3007   -0.3293 C.ar      1 <1>        -0.0141
     19 C14         1.2960    2.9081   -1.5773 C.ar      1 <1>        -0.0460
     20 C15         0.7134    2.2541   -2.6452 C.ar      1 <1>        -0.0576
     21 C16         0.1573    0.9991   -2.4697 C.ar      1 <1>        -0.0088
     22 C17         0.1883    0.3938   -1.2256 C.ar      1 <1>        -0.0602
     23 C18         0.7743    1.0415   -0.1557 C.ar      1 <1>        -0.0492
     24 Cl1        -0.5801    0.1824   -3.8124 Cl        1 <1>        -0.1378
     25 H1          1.3392    5.2178    7.8625 H         1 <1>         0.1104
     26 H2          3.4258    4.0693    7.2463 H         1 <1>         0.1128
     27 H3          3.8293    3.4117    4.9104 H         1 <1>         0.1297
     28 H4          0.0380    5.0763    3.8050 H         1 <1>         0.1186
     29 H5         -0.3504    5.7216    6.1469 H         1 <1>         0.1111
     30 H6          0.3695    2.7678    2.2645 H         1 <1>         0.2059
     31 H7          5.7972    5.7334    3.5601 H         1 <1>         0.2513
     32 H8          5.9835    4.2714   -0.7878 H         1 <1>         0.3046
     33 H9          7.4854    4.7580    1.7059 H         1 <1>         0.0189
     34 H10         7.0930    5.8529    0.5171 H         1 <1>         0.0313
     35 H11         1.7260    3.8893   -1.7138 H         1 <1>         0.1479
     36 H12         0.6884    2.7242   -3.6172 H         1 <1>         0.1437
     37 H13        -0.2464   -0.5855   -1.0910 H         1 <1>         0.1434
     38 H14         0.7976    0.5691    0.8152 H         1 <1>         0.1452
@<TRIPOS>BOND
     1    1    6 ar
     2    1    2 ar
     3    1   25 1
     4    2    3 ar
     5    2   26 1
     6    3    4 ar
     7    3   27 1
     8    4    5 ar
     9    4    7 1
    10    5    6 ar
    11    5   28 1
    12    6   29 1
    13    7   11 1
    14    7    8 2
    15    8    9 1
    16    8   30 1
    17    9   10 1
    18    9   18 1
    19   10   16 1
    20   10   11 2
    21   11   12 1
    22   12   13 2
    23   12   14 1
    24   13   31 1
    25   14   15 1
    26   14   17 1
    27   15   16 2
    28   15   32 1
    29   17   33 1
    30   17   34 1
    31   18   23 ar
    32   18   19 ar
    33   19   20 ar
    34   19   35 1
    35   20   21 ar
    36   20   36 1
    37   21   22 ar
    38   21   24 1
    39   22   23 ar
    40   22   37 1
    41   23   38 1
@<TRIPOS>Similarity
1.1749
@<TRIPOS>ShapeSim
0.6571
@<TRIPOS>PharmSim
0.5177
# END
# Name:		ZINC03852038
# Created and modified by SHAFTS on Mon Jun 23 14:53:19 2014

# 

@<TRIPOS>MOLECULE
ZINC03852038
   38    41     0
SMALL
USER_CHARGE


@<TRIPOS>ATOM
      1 C1          1.5134    4.9324    6.8356 C.ar      1 <1>        -0.1098
      2 C2          2.6856    4.2843    6.4899 C.ar      1 <1>        -0.0994
      3 C3          2.9135    3.9173    5.1793 C.ar      1 <1>        -0.0791
      4 C4          1.9599    4.2011    4.2028 C.ar      1 <1>        -0.0619
      5 C5          0.7802    4.8539    4.5572 C.ar      1 <1>        -0.0884
      6 C6          0.5631    5.2158    5.8711 C.ar      1 <1>        -0.1065
      7 C7          2.1990    3.8092    2.7930 C.2       1 <1>        -0.0194
      8 C8          1.3494    3.1244    1.9831 C.2       1 <1>        -0.0171
      9 N1          1.9283    2.9599    0.7547 N.pl3     1 <1>        -0.3054
     10 C9          3.1741    3.5254    0.7374 C.2       1 <1>         0.0431
     11 C10         3.3998    4.0777    1.9993 C.2       1 <1>         0.0572
     12 C11         4.6751    4.7523    2.2508 C.2       1 <1>         0.0025
     13 N2          4.9458    5.2916    3.4162 N.2       1 <1>        -0.4320
     14 N3          5.5824    4.7971    1.2067 N.pl3     1 <1>        -0.4555
     15 C12         5.2621    4.2262    0.0147 C.2       1 <1>         0.0258
     16 N4          4.1297    3.6289   -0.2040 N.2       1 <1>        -0.3385
     17 N5          6.7917    5.4105    1.3725 N.3       1 <1>         0.3831
     18 C13         1.3331    2.3007   -0.3293 C.ar      1 <1>        -0.0141
     19 C14         1.2960    2.9081   -1.5773 C.ar      1 <1>        -0.0460
     20 C15         0.7134    2.2541   -2.6452 C.ar      1 <1>        -0.0576
     21 C16         0.1573    0.9991   -2.4697 C.ar      1 <1>        -0.0088
     22 C17         0.1883    0.3938   -1.2256 C.ar      1 <1>        -0.0602
     23 C18         0.7743    1.0415   -0.1557 C.ar      1 <1>        -0.0492
     24 Cl1        -0.5801    0.1824   -3.8124 Cl        1 <1>        -0.1378
     25 H1          1.3392    5.2178    7.8625 H         1 <1>         0.1104
     26 H2          3.4258    4.0693    7.2463 H         1 <1>         0.1128
     27 H3          3.8293    3.4117    4.9104 H         1 <1>         0.1297
     28 H4          0.0380    5.0763    3.8050 H         1 <1>         0.1186
     29 H5         -0.3504    5.7216    6.1469 H         1 <1>         0.1111
     30 H6          0.3695    2.7678    2.2645 H         1 <1>         0.2059
     31 H7          5.7972    5.7334    3.5601 H         1 <1>         0.2513
     32 H8          5.9835    4.2714   -0.7878 H         1 <1>         0.3046
     33 H9          7.4854    4.7580    1.7059 H         1 <1>         0.0189
     34 H10         7.0930    5.8529    0.5171 H         1 <1>         0.0313
     35 H11         1.7260    3.8893   -1.7138 H         1 <1>         0.1479
     36 H12         0.6884    2.7242   -3.6172 H         1 <1>         0.1437
     37 H13        -0.2464   -0.5855   -1.0910 H         1 <1>         0.1434
     38 H14         0.7976    0.5691    0.8152 H         1 <1>         0.1452
@<TRIPOS>BOND
     1    1    6 ar
     2    1    2 ar
     3    1   25 1
     4    2    3 ar
     5    2   26 1
     6    3    4 ar
     7    3   27 1
     8    4    5 ar
     9    4    7 1
    10    5    6 ar
    11    5   28 1
    12    6   29 1
    13    7   11 1
    14    7    8 2
    15    8    9 1
    16    8   30 1
    17    9   10 1
    18    9   18 1
    19   10   16 1
    20   10   11 2
    21   11   12 1
    22   12   13 2
    23   12   14 1
    24   13   31 1
    25   14   15 1
    26   14   17 1
    27   15   16 2
    28   15   32 1
    29   17   33 1
    30   17   34 1
    31   18   23 ar
    32   18   19 ar
    33   19   20 ar
    34   19   35 1
    35   20   21 ar
    36   20   36 1
    37   21   22 ar
    38   21   24 1
    39   22   23 ar
    40   22   37 1
    41   23   38 1
@<TRIPOS>Similarity
1.1749
@<TRIPOS>ShapeSim
0.6571
@<TRIPOS>PharmSim
0.5177
# END
# Name:		ZINC03852038
# Created and modified by SHAFTS on Mon Jun 23 14:53:19 2014

# 

@<TRIPOS>MOLECULE
ZINC03852038
   38    41     0
SMALL
USER_CHARGE


@<TRIPOS>ATOM
      1 C1          1.5134    4.9324    6.8356 C.ar      1 <1>        -0.1098
      2 C2          2.6856    4.2843    6.4899 C.ar      1 <1>        -0.0994
      3 C3          2.9135    3.9173    5.1793 C.ar      1 <1>        -0.0791
      4 C4          1.9599    4.2011    4.2028 C.ar      1 <1>        -0.0619
      5 C5          0.7802    4.8539    4.5572 C.ar      1 <1>        -0.0884
      6 C6          0.5631    5.2158    5.8711 C.ar      1 <1>        -0.1065
      7 C7          2.1990    3.8092    2.7930 C.2       1 <1>        -0.0194
      8 C8          1.3494    3.1244    1.9831 C.2       1 <1>        -0.0171
      9 N1          1.9283    2.9599    0.7547 N.pl3     1 <1>        -0.3054
     10 C9          3.1741    3.5254    0.7374 C.2       1 <1>         0.0431
     11 C10         3.3998    4.0777    1.9993 C.2       1 <1>         0.0572
     12 C11         4.6751    4.7523    2.2508 C.2       1 <1>         0.0025
     13 N2          4.9458    5.2916    3.4162 N.2       1 <1>        -0.4320
     14 N3          5.5824    4.7971    1.2067 N.pl3     1 <1>        -0.4555
     15 C12         5.2621    4.2262    0.0147 C.2       1 <1>         0.0258
     16 N4          4.1297    3.6289   -0.2040 N.2       1 <1>        -0.3385
     17 N5          6.7917    5.4105    1.3725 N.3       1 <1>         0.3831
     18 C13         1.3331    2.3007   -0.3293 C.ar      1 <1>        -0.0141
     19 C14         1.2960    2.9081   -1.5773 C.ar      1 <1>        -0.0460
     20 C15         0.7134    2.2541   -2.6452 C.ar      1 <1>        -0.0576
     21 C16         0.1573    0.9991   -2.4697 C.ar      1 <1>        -0.0088
     22 C17         0.1883    0.3938   -1.2256 C.ar      1 <1>        -0.0602
     23 C18         0.7743    1.0415   -0.1557 C.ar      1 <1>        -0.0492
     24 Cl1        -0.5801    0.1824   -3.8124 Cl        1 <1>        -0.1378
     25 H1          1.3392    5.2178    7.8625 H         1 <1>         0.1104
     26 H2          3.4258    4.0693    7.2463 H         1 <1>         0.1128
     27 H3          3.8293    3.4117    4.9104 H         1 <1>         0.1297
     28 H4          0.0380    5.0763    3.8050 H         1 <1>         0.1186
     29 H5         -0.3504    5.7216    6.1469 H         1 <1>         0.1111
     30 H6          0.3695    2.7678    2.2645 H         1 <1>         0.2059
     31 H7          5.7972    5.7334    3.5601 H         1 <1>         0.2513
     32 H8          5.9835    4.2714   -0.7878 H         1 <1>         0.3046
     33 H9          7.4854    4.7580    1.7059 H         1 <1>         0.0189
     34 H10         7.0930    5.8529    0.5171 H         1 <1>         0.0313
     35 H11         1.7260    3.8893   -1.7138 H         1 <1>         0.1479
     36 H12         0.6884    2.7242   -3.6172 H         1 <1>         0.1437
     37 H13        -0.2464   -0.5855   -1.0910 H         1 <1>         0.1434
     38 H14         0.7976    0.5691    0.8152 H         1 <1>         0.1452
@<TRIPOS>BOND
     1    1    6 ar
     2    1    2 ar
     3    1   25 1
     4    2    3 ar
     5    2   26 1
     6    3    4 ar
     7    3   27 1
     8    4    5 ar
     9    4    7 1
    10    5    6 ar
    11    5   28 1
    12    6   29 1
    13    7   11 1
    14    7    8 2
    15    8    9 1
    16    8   30 1
    17    9   10 1
    18    9   18 1
    19   10   16 1
    20   10   11 2
    21   11   12 1
    22   12   13 2
    23   12   14 1
    24   13   31 1
    25   14   15 1
    26   14   17 1
    27   15   16 2
    28   15   32 1
    29   17   33 1
    30   17   34 1
    31   18   23 ar
    32   18   19 ar
    33   19   20 ar
    34   19   35 1
    35   20   21 ar
    36   20   36 1
    37   21   22 ar
    38   21   24 1
    39   22   23 ar
    40   22   37 1
    41   23   38 1
@<TRIPOS>Similarity
1.1749
@<TRIPOS>ShapeSim
0.6571
@<TRIPOS>PharmSim
0.5177
# END
# Name:		ZINC03852038
# Created and modified by SHAFTS on Mon Jun 23 14:53:19 2014

# 

@<TRIPOS>MOLECULE
ZINC03852038
   38    41     0
SMALL
USER_CHARGE


@<TRIPOS>ATOM
      1 C1          1.5134    4.9324    6.8356 C.ar      1 <1>        -0.1098
      2 C2          2.6856    4.2843    6.4899 C.ar      1 <1>        -0.0994
      3 C3          2.9135    3.9173    5.1793 C.ar      1 <1>        -0.0791
      4 C4          1.9599    4.2011    4.2028 C.ar      1 <1>        -0.0619
      5 C5          0.7802    4.8539    4.5572 C.ar      1 <1>        -0.0884
      6 C6          0.5631    5.2158    5.8711 C.ar      1 <1>        -0.1065
      7 C7          2.1990    3.8092    2.7930 C.2       1 <1>        -0.0194
      8 C8          1.3494    3.1244    1.9831 C.2       1 <1>        -0.0171
      9 N1          1.9283    2.9599    0.7547 N.pl3     1 <1>        -0.3054
     10 C9          3.1741    3.5254    0.7374 C.2       1 <1>         0.0431
     11 C10         3.3998    4.0777    1.9993 C.2       1 <1>         0.0572
     12 C11         4.6751    4.7523    2.2508 C.2       1 <1>         0.0025
     13 N2          4.9458    5.2916    3.4162 N.2       1 <1>        -0.4320
     14 N3          5.5824    4.7971    1.2067 N.pl3     1 <1>        -0.4555
     15 C12         5.2621    4.2262    0.0147 C.2       1 <1>         0.0258
     16 N4          4.1297    3.6289   -0.2040 N.2       1 <1>        -0.3385
     17 N5          6.7917    5.4105    1.3725 N.3       1 <1>         0.3831
     18 C13         1.3331    2.3007   -0.3293 C.ar      1 <1>        -0.0141
     19 C14         1.2960    2.9081   -1.5773 C.ar      1 <1>        -0.0460
     20 C15         0.7134    2.2541   -2.6452 C.ar      1 <1>        -0.0576
     21 C16         0.1573    0.9991   -2.4697 C.ar      1 <1>        -0.0088
     22 C17         0.1883    0.3938   -1.2256 C.ar      1 <1>        -0.0602
     23 C18         0.7743    1.0415   -0.1557 C.ar      1 <1>        -0.0492
     24 Cl1        -0.5801    0.1824   -3.8124 Cl        1 <1>        -0.1378
     25 H1          1.3392    5.2178    7.8625 H         1 <1>         0.1104
     26 H2          3.4258    4.0693    7.2463 H         1 <1>         0.1128
     27 H3          3.8293    3.4117    4.9104 H         1 <1>         0.1297
     28 H4          0.0380    5.0763    3.8050 H         1 <1>         0.1186
     29 H5         -0.3504    5.7216    6.1469 H         1 <1>         0.1111
     30 H6          0.3695    2.7678    2.2645 H         1 <1>         0.2059
     31 H7          5.7972    5.7334    3.5601 H         1 <1>         0.2513
     32 H8          5.9835    4.2714   -0.7878 H         1 <1>         0.3046
     33 H9          7.4854    4.7580    1.7059 H         1 <1>         0.0189
     34 H10         7.0930    5.8529    0.5171 H         1 <1>         0.0313
     35 H11         1.7260    3.8893   -1.7138 H         1 <1>         0.1479
     36 H12         0.6884    2.7242   -3.6172 H         1 <1>         0.1437
     37 H13        -0.2464   -0.5855   -1.0910 H         1 <1>         0.1434
     38 H14         0.7976    0.5691    0.8152 H         1 <1>         0.1452
@<TRIPOS>BOND
     1    1    6 ar
     2    1    2 ar
     3    1   25 1
     4    2    3 ar
     5    2   26 1
     6    3    4 ar
     7    3   27 1
     8    4    5 ar
     9    4    7 1
    10    5    6 ar
    11    5   28 1
    12    6   29 1
    13    7   11 1
    14    7    8 2
    15    8    9 1
    16    8   30 1
    17    9   10 1
    18    9   18 1
    19   10   16 1
    20   10   11 2
    21   11   12 1
    22   12   13 2
    23   12   14 1
    24   13   31 1
    25   14   15 1
    26   14   17 1
    27   15   16 2
    28   15   32 1
    29   17   33 1
    30   17   34 1
    31   18   23 ar
    32   18   19 ar
    33   19   20 ar
    34   19   35 1
    35   20   21 ar
    36   20   36 1
    37   21   22 ar
    38   21   24 1
    39   22   23 ar
    40   22   37 1
    41   23   38 1
@<TRIPOS>Similarity
1.1749
@<TRIPOS>ShapeSim
0.6571
@<TRIPOS>PharmSim
0.5177
# END
# Name:		ZINC03852038
# Created and modified by SHAFTS on Mon Jun 23 14:53:19 2014

# 

@<TRIPOS>MOLECULE
ZINC03852038
   38    41     0
SMALL
USER_CHARGE


@<TRIPOS>ATOM
      1 C1          1.5134    4.9324    6.8356 C.ar      1 <1>        -0.1098
      2 C2          2.6856    4.2843    6.4899 C.ar      1 <1>        -0.0994
      3 C3          2.9135    3.9173    5.1793 C.ar      1 <1>        -0.0791
      4 C4          1.9599    4.2011    4.2028 C.ar      1 <1>        -0.0619
      5 C5          0.7802    4.8539    4.5572 C.ar      1 <1>        -0.0884
      6 C6          0.5631    5.2158    5.8711 C.ar      1 <1>        -0.1065
      7 C7          2.1990    3.8092    2.7930 C.2       1 <1>        -0.0194
      8 C8          1.3494    3.1244    1.9831 C.2       1 <1>        -0.0171
      9 N1          1.9283    2.9599    0.7547 N.pl3     1 <1>        -0.3054
     10 C9          3.1741    3.5254    0.7374 C.2       1 <1>         0.0431
     11 C10         3.3998    4.0777    1.9993 C.2       1 <1>         0.0572
     12 C11         4.6751    4.7523    2.2508 C.2       1 <1>         0.0025
     13 N2          4.9458    5.2916    3.4162 N.2       1 <1>        -0.4320
     14 N3          5.5824    4.7971    1.2067 N.pl3     1 <1>        -0.4555
     15 C12         5.2621    4.2262    0.0147 C.2       1 <1>         0.0258
     16 N4          4.1297    3.6289   -0.2040 N.2       1 <1>        -0.3385
     17 N5          6.7917    5.4105    1.3725 N.3       1 <1>         0.3831
     18 C13         1.3331    2.3007   -0.3293 C.ar      1 <1>        -0.0141
     19 C14         1.2960    2.9081   -1.5773 C.ar      1 <1>        -0.0460
     20 C15         0.7134    2.2541   -2.6452 C.ar      1 <1>        -0.0576
     21 C16         0.1573    0.9991   -2.4697 C.ar      1 <1>        -0.0088
     22 C17         0.1883    0.3938   -1.2256 C.ar      1 <1>        -0.0602
     23 C18         0.7743    1.0415   -0.1557 C.ar      1 <1>        -0.0492
     24 Cl1        -0.5801    0.1824   -3.8124 Cl        1 <1>        -0.1378
     25 H1          1.3392    5.2178    7.8625 H         1 <1>         0.1104
     26 H2          3.4258    4.0693    7.2463 H         1 <1>         0.1128
     27 H3          3.8293    3.4117    4.9104 H         1 <1>         0.1297
     28 H4          0.0380    5.0763    3.8050 H         1 <1>         0.1186
     29 H5         -0.3504    5.7216    6.1469 H         1 <1>         0.1111
     30 H6          0.3695    2.7678    2.2645 H         1 <1>         0.2059
     31 H7          5.7972    5.7334    3.5601 H         1 <1>         0.2513
     32 H8          5.9835    4.2714   -0.7878 H         1 <1>         0.3046
     33 H9          7.4854    4.7580    1.7059 H         1 <1>         0.0189
     34 H10         7.0930    5.8529    0.5171 H         1 <1>         0.0313
     35 H11         1.7260    3.8893   -1.7138 H         1 <1>         0.1479
     36 H12         0.6884    2.7242   -3.6172 H         1 <1>         0.1437
     37 H13        -0.2464   -0.5855   -1.0910 H         1 <1>         0.1434
     38 H14         0.7976    0.5691    0.8152 H         1 <1>         0.1452
@<TRIPOS>BOND
     1    1    6 ar
     2    1    2 ar
     3    1   25 1
     4    2    3 ar
     5    2   26 1
     6    3    4 ar
     7    3   27 1
     8    4    5 ar
     9    4    7 1
    10    5    6 ar
    11    5   28 1
    12    6   29 1
    13    7   11 1
    14    7    8 2
    15    8    9 1
    16    8   30 1
    17    9   10 1
    18    9   18 1
    19   10   16 1
    20   10   11 2
    21   11   12 1
    22   12   13 2
    23   12   14 1
    24   13   31 1
    25   14   15 1
    26   14   17 1
    27   15   16 2
    28   15   32 1
    29   17   33 1
    30   17   34 1
    31   18   23 ar
    32   18   19 ar
    33   19   20 ar
    34   19   35 1
    35   20   21 ar
    36   20   36 1
    37   21   22 ar
    38   21   24 1
    39   22   23 ar
    40   22   37 1
    41   23   38 1
@<TRIPOS>Similarity
1.1749
@<TRIPOS>ShapeSim
0.6571
@<TRIPOS>PharmSim
0.5177
# END
# Name:		ZINC03852038
# Created and modified by SHAFTS on Mon Jun 23 14:53:19 2014

# 

@<TRIPOS>MOLECULE
ZINC03852038
   38    41     0
SMALL
USER_CHARGE


@<TRIPOS>ATOM
      1 C1          1.5134    4.9324    6.8356 C.ar      1 <1>        -0.1098
      2 C2          2.6856    4.2843    6.4899 C.ar      1 <1>        -0.0994
      3 C3          2.9135    3.9173    5.1793 C.ar      1 <1>        -0.0791
      4 C4          1.9599    4.2011    4.2028 C.ar      1 <1>        -0.0619
      5 C5          0.7802    4.8539    4.5572 C.ar      1 <1>        -0.0884
      6 C6          0.5631    5.2158    5.8711 C.ar      1 <1>        -0.1065
      7 C7          2.1990    3.8092    2.7930 C.2       1 <1>        -0.0194
      8 C8          1.3494    3.1244    1.9831 C.2       1 <1>        -0.0171
      9 N1          1.9283    2.9599    0.7547 N.pl3     1 <1>        -0.3054
     10 C9          3.1741    3.5254    0.7374 C.2       1 <1>         0.0431
     11 C10         3.3998    4.0777    1.9993 C.2       1 <1>         0.0572
     12 C11         4.6751    4.7523    2.2508 C.2       1 <1>         0.0025
     13 N2          4.9458    5.2916    3.4162 N.2       1 <1>        -0.4320
     14 N3          5.5824    4.7971    1.2067 N.pl3     1 <1>        -0.4555
     15 C12         5.2621    4.2262    0.0147 C.2       1 <1>         0.0258
     16 N4          4.1297    3.6289   -0.2040 N.2       1 <1>        -0.3385
     17 N5          6.7917    5.4105    1.3725 N.3       1 <1>         0.3831
     18 C13         1.3331    2.3007   -0.3293 C.ar      1 <1>        -0.0141
     19 C14         1.2960    2.9081   -1.5773 C.ar      1 <1>        -0.0460
     20 C15         0.7134    2.2541   -2.6452 C.ar      1 <1>        -0.0576
     21 C16         0.1573    0.9991   -2.4697 C.ar      1 <1>        -0.0088
     22 C17         0.1883    0.3938   -1.2256 C.ar      1 <1>        -0.0602
     23 C18         0.7743    1.0415   -0.1557 C.ar      1 <1>        -0.0492
     24 Cl1        -0.5801    0.1824   -3.8124 Cl        1 <1>        -0.1378
     25 H1          1.3392    5.2178    7.8625 H         1 <1>         0.1104
     26 H2          3.4258    4.0693    7.2463 H         1 <1>         0.1128
     27 H3          3.8293    3.4117    4.9104 H         1 <1>         0.1297
     28 H4          0.0380    5.0763    3.8050 H         1 <1>         0.1186
     29 H5         -0.3504    5.7216    6.1469 H         1 <1>         0.1111
     30 H6          0.3695    2.7678    2.2645 H         1 <1>         0.2059
     31 H7          5.7972    5.7334    3.5601 H         1 <1>         0.2513
     32 H8          5.9835    4.2714   -0.7878 H         1 <1>         0.3046
     33 H9          7.4854    4.7580    1.7059 H         1 <1>         0.0189
     34 H10         7.0930    5.8529    0.5171 H         1 <1>         0.0313
     35 H11         1.7260    3.8893   -1.7138 H         1 <1>         0.1479
     36 H12         0.6884    2.7242   -3.6172 H         1 <1>         0.1437
     37 H13        -0.2464   -0.5855   -1.0910 H         1 <1>         0.1434
     38 H14         0.7976    0.5691    0.8152 H         1 <1>         0.1452
@<TRIPOS>BOND
     1    1    6 ar
     2    1    2 ar
     3    1   25 1
     4    2    3 ar
     5    2   26 1
     6    3    4 ar
     7    3   27 1
     8    4    5 ar
     9    4    7 1
    10    5    6 ar
    11    5   28 1
    12    6   29 1
    13    7   11 1
    14    7    8 2
    15    8    9 1
    16    8   30 1
    17    9   10 1
    18    9   18 1
    19   10   16 1
    20   10   11 2
    21   11   12 1
    22   12   13 2
    23   12   14 1
    24   13   31 1
    25   14   15 1
    26   14   17 1
    27   15   16 2
    28   15   32 1
    29   17   33 1
    30   17   34 1
    31   18   23 ar
    32   18   19 ar
    33   19   20 ar
    34   19   35 1
    35   20   21 ar
    36   20   36 1
    37   21   22 ar
    38   21   24 1
    39   22   23 ar
    40   22   37 1
    41   23   38 1
@<TRIPOS>Similarity
1.1749
@<TRIPOS>ShapeSim
0.6571
@<TRIPOS>PharmSim
0.5177
# END
# Name:		ZINC03852038
# Created and modified by SHAFTS on Mon Jun 23 14:53:19 2014

# 

@<TRIPOS>MOLECULE
ZINC03852038
   38    41     0
SMALL
USER_CHARGE


@<TRIPOS>ATOM
      1 C1          1.5134    4.9324    6.8356 C.ar      1 <1>        -0.1098
      2 C2          2.6856    4.2843    6.4899 C.ar      1 <1>        -0.0994
      3 C3          2.9135    3.9173    5.1793 C.ar      1 <1>        -0.0791
      4 C4          1.9599    4.2011    4.2028 C.ar      1 <1>        -0.0619
      5 C5          0.7802    4.8539    4.5572 C.ar      1 <1>        -0.0884
      6 C6          0.5631    5.2158    5.8711 C.ar      1 <1>        -0.1065
      7 C7          2.1990    3.8092    2.7930 C.2       1 <1>        -0.0194
      8 C8          1.3494    3.1244    1.9831 C.2       1 <1>        -0.0171
      9 N1          1.9283    2.9599    0.7547 N.pl3     1 <1>        -0.3054
     10 C9          3.1741    3.5254    0.7374 C.2       1 <1>         0.0431
     11 C10         3.3998    4.0777    1.9993 C.2       1 <1>         0.0572
     12 C11         4.6751    4.7523    2.2508 C.2       1 <1>         0.0025
     13 N2          4.9458    5.2916    3.4162 N.2       1 <1>        -0.4320
     14 N3          5.5824    4.7971    1.2067 N.pl3     1 <1>        -0.4555
     15 C12         5.2621    4.2262    0.0147 C.2       1 <1>         0.0258
     16 N4          4.1297    3.6289   -0.2040 N.2       1 <1>        -0.3385
     17 N5          6.7917    5.4105    1.3725 N.3       1 <1>         0.3831
     18 C13         1.3331    2.3007   -0.3293 C.ar      1 <1>        -0.0141
     19 C14         1.2960    2.9081   -1.5773 C.ar      1 <1>        -0.0460
     20 C15         0.7134    2.2541   -2.6452 C.ar      1 <1>        -0.0576
     21 C16         0.1573    0.9991   -2.4697 C.ar      1 <1>        -0.0088
     22 C17         0.1883    0.3938   -1.2256 C.ar      1 <1>        -0.0602
     23 C18         0.7743    1.0415   -0.1557 C.ar      1 <1>        -0.0492
     24 Cl1        -0.5801    0.1824   -3.8124 Cl        1 <1>        -0.1378
     25 H1          1.3392    5.2178    7.8625 H         1 <1>         0.1104
     26 H2          3.4258    4.0693    7.2463 H         1 <1>         0.1128
     27 H3          3.8293    3.4117    4.9104 H         1 <1>         0.1297
     28 H4          0.0380    5.0763    3.8050 H         1 <1>         0.1186
     29 H5         -0.3504    5.7216    6.1469 H         1 <1>         0.1111
     30 H6          0.3695    2.7678    2.2645 H         1 <1>         0.2059
     31 H7          5.7972    5.7334    3.5601 H         1 <1>         0.2513
     32 H8          5.9835    4.2714   -0.7878 H         1 <1>         0.3046
     33 H9          7.4854    4.7580    1.7059 H         1 <1>         0.0189
     34 H10         7.0930    5.8529    0.5171 H         1 <1>         0.0313
     35 H11         1.7260    3.8893   -1.7138 H         1 <1>         0.1479
     36 H12         0.6884    2.7242   -3.6172 H         1 <1>         0.1437
     37 H13        -0.2464   -0.5855   -1.0910 H         1 <1>         0.1434
     38 H14         0.7976    0.5691    0.8152 H         1 <1>         0.1452
@<TRIPOS>BOND
     1    1    6 ar
     2    1    2 ar
     3    1   25 1
     4    2    3 ar
     5    2   26 1
     6    3    4 ar
     7    3   27 1
     8    4    5 ar
     9    4    7 1
    10    5    6 ar
    11    5   28 1
    12    6   29 1
    13    7   11 1
    14    7    8 2
    15    8    9 1
    16    8   30 1
    17    9   10 1
    18    9   18 1
    19   10   16 1
    20   10   11 2
    21   11   12 1
    22   12   13 2
    23   12   14 1
    24   13   31 1
    25   14   15 1
    26   14   17 1
    27   15   16 2
    28   15   32 1
    29   17   33 1
    30   17   34 1
    31   18   23 ar
    32   18   19 ar
    33   19   20 ar
    34   19   35 1
    35   20   21 ar
    36   20   36 1
    37   21   22 ar
    38   21   24 1
    39   22   23 ar
    40   22   37 1
    41   23   38 1
@<TRIPOS>Similarity
1.1749
@<TRIPOS>ShapeSim
0.6571
@<TRIPOS>PharmSim
0.5177
# END
# Name:		ZINC03852038
# Created and modified by SHAFTS on Mon Jun 23 14:53:19 2014

# 

@<TRIPOS>MOLECULE
ZINC03852038
   38    41     0
SMALL
USER_CHARGE


@<TRIPOS>ATOM
      1 C1          1.5134    4.9324    6.8356 C.ar      1 <1>        -0.1098
      2 C2          2.6856    4.2843    6.4899 C.ar      1 <1>        -0.0994
      3 C3          2.9135    3.9173    5.1793 C.ar      1 <1>        -0.0791
      4 C4          1.9599    4.2011    4.2028 C.ar      1 <1>        -0.0619
      5 C5          0.7802    4.8539    4.5572 C.ar      1 <1>        -0.0884
      6 C6          0.5631    5.2158    5.8711 C.ar      1 <1>        -0.1065
      7 C7          2.1990    3.8092    2.7930 C.2       1 <1>        -0.0194
      8 C8          1.3494    3.1244    1.9831 C.2       1 <1>        -0.0171
      9 N1          1.9283    2.9599    0.7547 N.pl3     1 <1>        -0.3054
     10 C9          3.1741    3.5254    0.7374 C.2       1 <1>         0.0431
     11 C10         3.3998    4.0777    1.9993 C.2       1 <1>         0.0572
     12 C11         4.6751    4.7523    2.2508 C.2       1 <1>         0.0025
     13 N2          4.9458    5.2916    3.4162 N.2       1 <1>        -0.4320
     14 N3          5.5824    4.7971    1.2067 N.pl3     1 <1>        -0.4555
     15 C12         5.2621    4.2262    0.0147 C.2       1 <1>         0.0258
     16 N4          4.1297    3.6289   -0.2040 N.2       1 <1>        -0.3385
     17 N5          6.7917    5.4105    1.3725 N.3       1 <1>         0.3831
     18 C13         1.3331    2.3007   -0.3293 C.ar      1 <1>        -0.0141
     19 C14         1.2960    2.9081   -1.5773 C.ar      1 <1>        -0.0460
     20 C15         0.7134    2.2541   -2.6452 C.ar      1 <1>        -0.0576
     21 C16         0.1573    0.9991   -2.4697 C.ar      1 <1>        -0.0088
     22 C17         0.1883    0.3938   -1.2256 C.ar      1 <1>        -0.0602
     23 C18         0.7743    1.0415   -0.1557 C.ar      1 <1>        -0.0492
     24 Cl1        -0.5801    0.1824   -3.8124 Cl        1 <1>        -0.1378
     25 H1          1.3392    5.2178    7.8625 H         1 <1>         0.1104
     26 H2          3.4258    4.0693    7.2463 H         1 <1>         0.1128
     27 H3          3.8293    3.4117    4.9104 H         1 <1>         0.1297
     28 H4          0.0380    5.0763    3.8050 H         1 <1>         0.1186
     29 H5         -0.3504    5.7216    6.1469 H         1 <1>         0.1111
     30 H6          0.3695    2.7678    2.2645 H         1 <1>         0.2059
     31 H7          5.7972    5.7334    3.5601 H         1 <1>         0.2513
     32 H8          5.9835    4.2714   -0.7878 H         1 <1>         0.3046
     33 H9          7.4854    4.7580    1.7059 H         1 <1>         0.0189
     34 H10         7.0930    5.8529    0.5171 H         1 <1>         0.0313
     35 H11         1.7260    3.8893   -1.7138 H         1 <1>         0.1479
     36 H12         0.6884    2.7242   -3.6172 H         1 <1>         0.1437
     37 H13        -0.2464   -0.5855   -1.0910 H         1 <1>         0.1434
     38 H14         0.7976    0.5691    0.8152 H         1 <1>         0.1452
@<TRIPOS>BOND
     1    1    6 ar
     2    1    2 ar
     3    1   25 1
     4    2    3 ar
     5    2   26 1
     6    3    4 ar
     7    3   27 1
     8    4    5 ar
     9    4    7 1
    10    5    6 ar
    11    5   28 1
    12    6   29 1
    13    7   11 1
    14    7    8 2
    15    8    9 1
    16    8   30 1
    17    9   10 1
    18    9   18 1
    19   10   16 1
    20   10   11 2
    21   11   12 1
    22   12   13 2
    23   12   14 1
    24   13   31 1
    25   14   15 1
    26   14   17 1
    27   15   16 2
    28   15   32 1
    29   17   33 1
    30   17   34 1
    31   18   23 ar
    32   18   19 ar
    33   19   20 ar
    34   19   35 1
    35   20   21 ar
    36   20   36 1
    37   21   22 ar
    38   21   24 1
    39   22   23 ar
    40   22   37 1
    41   23   38 1
@<TRIPOS>Similarity
1.1749
@<TRIPOS>ShapeSim
0.6571
@<TRIPOS>PharmSim
0.5177
# END
# Name:		ZINC03852038
# Created and modified by SHAFTS on Mon Jun 23 14:53:19 2014

# 

@<TRIPOS>MOLECULE
ZINC03852038
   38    41     0
SMALL
USER_CHARGE


@<TRIPOS>ATOM
      1 C1          1.5134    4.9324    6.8356 C.ar      1 <1>        -0.1098
      2 C2          2.6856    4.2843    6.4899 C.ar      1 <1>        -0.0994
      3 C3          2.9135    3.9173    5.1793 C.ar      1 <1>        -0.0791
      4 C4          1.9599    4.2011    4.2028 C.ar      1 <1>        -0.0619
      5 C5          0.7802    4.8539    4.5572 C.ar      1 <1>        -0.0884
      6 C6          0.5631    5.2158    5.8711 C.ar      1 <1>        -0.1065
      7 C7          2.1990    3.8092    2.7930 C.2       1 <1>        -0.0194
      8 C8          1.3494    3.1244    1.9831 C.2       1 <1>        -0.0171
      9 N1          1.9283    2.9599    0.7547 N.pl3     1 <1>        -0.3054
     10 C9          3.1741    3.5254    0.7374 C.2       1 <1>         0.0431
     11 C10         3.3998    4.0777    1.9993 C.2       1 <1>         0.0572
     12 C11         4.6751    4.7523    2.2508 C.2       1 <1>         0.0025
     13 N2          4.9458    5.2916    3.4162 N.2       1 <1>        -0.4320
     14 N3          5.5824    4.7971    1.2067 N.pl3     1 <1>        -0.4555
     15 C12         5.2621    4.2262    0.0147 C.2       1 <1>         0.0258
     16 N4          4.1297    3.6289   -0.2040 N.2       1 <1>        -0.3385
     17 N5          6.7917    5.4105    1.3725 N.3       1 <1>         0.3831
     18 C13         1.3331    2.3007   -0.3293 C.ar      1 <1>        -0.0141
     19 C14         1.2960    2.9081   -1.5773 C.ar      1 <1>        -0.0460
     20 C15         0.7134    2.2541   -2.6452 C.ar      1 <1>        -0.0576
     21 C16         0.1573    0.9991   -2.4697 C.ar      1 <1>        -0.0088
     22 C17         0.1883    0.3938   -1.2256 C.ar      1 <1>        -0.0602
     23 C18         0.7743    1.0415   -0.1557 C.ar      1 <1>        -0.0492
     24 Cl1        -0.5801    0.1824   -3.8124 Cl        1 <1>        -0.1378
     25 H1          1.3392    5.2178    7.8625 H         1 <1>         0.1104
     26 H2          3.4258    4.0693    7.2463 H         1 <1>         0.1128
     27 H3          3.8293    3.4117    4.9104 H         1 <1>         0.1297
     28 H4          0.0380    5.0763    3.8050 H         1 <1>         0.1186
     29 H5         -0.3504    5.7216    6.1469 H         1 <1>         0.1111
     30 H6          0.3695    2.7678    2.2645 H         1 <1>         0.2059
     31 H7          5.7972    5.7334    3.5601 H         1 <1>         0.2513
     32 H8          5.9835    4.2714   -0.7878 H         1 <1>         0.3046
     33 H9          7.4854    4.7580    1.7059 H         1 <1>         0.0189
     34 H10         7.0930    5.8529    0.5171 H         1 <1>         0.0313
     35 H11         1.7260    3.8893   -1.7138 H         1 <1>         0.1479
     36 H12         0.6884    2.7242   -3.6172 H         1 <1>         0.1437
     37 H13        -0.2464   -0.5855   -1.0910 H         1 <1>         0.1434
     38 H14         0.7976    0.5691    0.8152 H         1 <1>         0.1452
@<TRIPOS>BOND
     1    1    6 ar
     2    1    2 ar
     3    1   25 1
     4    2    3 ar
     5    2   26 1
     6    3    4 ar
     7    3   27 1
     8    4    5 ar
     9    4    7 1
    10    5    6 ar
    11    5   28 1
    12    6   29 1
    13    7   11 1
    14    7    8 2
    15    8    9 1
    16    8   30 1
    17    9   10 1
    18    9   18 1
    19   10   16 1
    20   10   11 2
    21   11   12 1
    22   12   13 2
    23   12   14 1
    24   13   31 1
    25   14   15 1
    26   14   17 1
    27   15   16 2
    28   15   32 1
    29   17   33 1
    30   17   34 1
    31   18   23 ar
    32   18   19 ar
    33   19   20 ar
    34   19   35 1
    35   20   21 ar
    36   20   36 1
    37   21   22 ar
    38   21   24 1
    39   22   23 ar
    40   22   37 1
    41   23   38 1
@<TRIPOS>Similarity
1.1749
@<TRIPOS>ShapeSim
0.6571
@<TRIPOS>PharmSim
0.5177
# END
# Name:		ZINC03852038
# Created and modified by SHAFTS on Mon Jun 23 14:53:19 2014

# 

@<TRIPOS>MOLECULE
ZINC03852038
   38    41     0
SMALL
USER_CHARGE


@<TRIPOS>ATOM
      1 C1          1.5134    4.9324    6.8356 C.ar      1 <1>        -0.1098
      2 C2          2.6856    4.2843    6.4899 C.ar      1 <1>        -0.0994
      3 C3          2.9135    3.9173    5.1793 C.ar      1 <1>        -0.0791
      4 C4          1.9599    4.2011    4.2028 C.ar      1 <1>        -0.0619
      5 C5          0.7802    4.8539    4.5572 C.ar      1 <1>        -0.0884
      6 C6          0.5631    5.2158    5.8711 C.ar      1 <1>        -0.1065
      7 C7          2.1990    3.8092    2.7930 C.2       1 <1>        -0.0194
      8 C8          1.3494    3.1244    1.9831 C.2       1 <1>        -0.0171
      9 N1          1.9283    2.9599    0.7547 N.pl3     1 <1>        -0.3054
     10 C9          3.1741    3.5254    0.7374 C.2       1 <1>         0.0431
     11 C10         3.3998    4.0777    1.9993 C.2       1 <1>         0.0572
     12 C11         4.6751    4.7523    2.2508 C.2       1 <1>         0.0025
     13 N2          4.9458    5.2916    3.4162 N.2       1 <1>        -0.4320
     14 N3          5.5824    4.7971    1.2067 N.pl3     1 <1>        -0.4555
     15 C12         5.2621    4.2262    0.0147 C.2       1 <1>         0.0258
     16 N4          4.1297    3.6289   -0.2040 N.2       1 <1>        -0.3385
     17 N5          6.7917    5.4105    1.3725 N.3       1 <1>         0.3831
     18 C13         1.3331    2.3007   -0.3293 C.ar      1 <1>        -0.0141
     19 C14         1.2960    2.9081   -1.5773 C.ar      1 <1>        -0.0460
     20 C15         0.7134    2.2541   -2.6452 C.ar      1 <1>        -0.0576
     21 C16         0.1573    0.9991   -2.4697 C.ar      1 <1>        -0.0088
     22 C17         0.1883    0.3938   -1.2256 C.ar      1 <1>        -0.0602
     23 C18         0.7743    1.0415   -0.1557 C.ar      1 <1>        -0.0492
     24 Cl1        -0.5801    0.1824   -3.8124 Cl        1 <1>        -0.1378
     25 H1          1.3392    5.2178    7.8625 H         1 <1>         0.1104
     26 H2          3.4258    4.0693    7.2463 H         1 <1>         0.1128
     27 H3          3.8293    3.4117    4.9104 H         1 <1>         0.1297
     28 H4          0.0380    5.0763    3.8050 H         1 <1>         0.1186
     29 H5         -0.3504    5.7216    6.1469 H         1 <1>         0.1111
     30 H6          0.3695    2.7678    2.2645 H         1 <1>         0.2059
     31 H7          5.7972    5.7334    3.5601 H         1 <1>         0.2513
     32 H8          5.9835    4.2714   -0.7878 H         1 <1>         0.3046
     33 H9          7.4854    4.7580    1.7059 H         1 <1>         0.0189
     34 H10         7.0930    5.8529    0.5171 H         1 <1>         0.0313
     35 H11         1.7260    3.8893   -1.7138 H         1 <1>         0.1479
     36 H12         0.6884    2.7242   -3.6172 H         1 <1>         0.1437
     37 H13        -0.2464   -0.5855   -1.0910 H         1 <1>         0.1434
     38 H14         0.7976    0.5691    0.8152 H         1 <1>         0.1452
@<TRIPOS>BOND
     1    1    6 ar
     2    1    2 ar
     3    1   25 1
     4    2    3 ar
     5    2   26 1
     6    3    4 ar
     7    3   27 1
     8    4    5 ar
     9    4    7 1
    10    5    6 ar
    11    5   28 1
    12    6   29 1
    13    7   11 1
    14    7    8 2
    15    8    9 1
    16    8   30 1
    17    9   10 1
    18    9   18 1
    19   10   16 1
    20   10   11 2
    21   11   12 1
    22   12   13 2
    23   12   14 1
    24   13   31 1
    25   14   15 1
    26   14   17 1
    27   15   16 2
    28   15   32 1
    29   17   33 1
    30   17   34 1
    31   18   23 ar
    32   18   19 ar
    33   19   20 ar
    34   19   35 1
    35   20   21 ar
    36   20   36 1
    37   21   22 ar
    38   21   24 1
    39   22   23 ar
    40   22   37 1
    41   23   38 1
@<TRIPOS>Similarity
1.1749
@<TRIPOS>ShapeSim
0.6571
@<TRIPOS>PharmSim
0.5177
# END
# Name:		ZINC03852038
# Created and modified by SHAFTS on Mon Jun 23 14:53:19 2014

# 

@<TRIPOS>MOLECULE
ZINC03852038
   38    41     0
SMALL
USER_CHARGE


@<TRIPOS>ATOM
      1 C1          1.5134    4.9324    6.8356 C.ar      1 <1>        -0.1098
      2 C2          2.6856    4.2843    6.4899 C.ar      1 <1>        -0.0994
      3 C3          2.9135    3.9173    5.1793 C.ar      1 <1>        -0.0791
      4 C4          1.9599    4.2011    4.2028 C.ar      1 <1>        -0.0619
      5 C5          0.7802    4.8539    4.5572 C.ar      1 <1>        -0.0884
      6 C6          0.5631    5.2158    5.8711 C.ar      1 <1>        -0.1065
      7 C7          2.1990    3.8092    2.7930 C.2       1 <1>        -0.0194
      8 C8          1.3494    3.1244    1.9831 C.2       1 <1>        -0.0171
      9 N1          1.9283    2.9599    0.7547 N.pl3     1 <1>        -0.3054
     10 C9          3.1741    3.5254    0.7374 C.2       1 <1>         0.0431
     11 C10         3.3998    4.0777    1.9993 C.2       1 <1>         0.0572
     12 C11         4.6751    4.7523    2.2508 C.2       1 <1>         0.0025
     13 N2          4.9458    5.2916    3.4162 N.2       1 <1>        -0.4320
     14 N3          5.5824    4.7971    1.2067 N.pl3     1 <1>        -0.4555
     15 C12         5.2621    4.2262    0.0147 C.2       1 <1>         0.0258
     16 N4          4.1297    3.6289   -0.2040 N.2       1 <1>        -0.3385
     17 N5          6.7917    5.4105    1.3725 N.3       1 <1>         0.3831
     18 C13         1.3331    2.3007   -0.3293 C.ar      1 <1>        -0.0141
     19 C14         1.2960    2.9081   -1.5773 C.ar      1 <1>        -0.0460
     20 C15         0.7134    2.2541   -2.6452 C.ar      1 <1>        -0.0576
     21 C16         0.1573    0.9991   -2.4697 C.ar      1 <1>        -0.0088
     22 C17         0.1883    0.3938   -1.2256 C.ar      1 <1>        -0.0602
     23 C18         0.7743    1.0415   -0.1557 C.ar      1 <1>        -0.0492
     24 Cl1        -0.5801    0.1824   -3.8124 Cl        1 <1>        -0.1378
     25 H1          1.3392    5.2178    7.8625 H         1 <1>         0.1104
     26 H2          3.4258    4.0693    7.2463 H         1 <1>         0.1128
     27 H3          3.8293    3.4117    4.9104 H         1 <1>         0.1297
     28 H4          0.0380    5.0763    3.8050 H         1 <1>         0.1186
     29 H5         -0.3504    5.7216    6.1469 H         1 <1>         0.1111
     30 H6          0.3695    2.7678    2.2645 H         1 <1>         0.2059
     31 H7          5.7972    5.7334    3.5601 H         1 <1>         0.2513
     32 H8          5.9835    4.2714   -0.7878 H         1 <1>         0.3046
     33 H9          7.4854    4.7580    1.7059 H         1 <1>         0.0189
     34 H10         7.0930    5.8529    0.5171 H         1 <1>         0.0313
     35 H11         1.7260    3.8893   -1.7138 H         1 <1>         0.1479
     36 H12         0.6884    2.7242   -3.6172 H         1 <1>         0.1437
     37 H13        -0.2464   -0.5855   -1.0910 H         1 <1>         0.1434
     38 H14         0.7976    0.5691    0.8152 H         1 <1>         0.1452
@<TRIPOS>BOND
     1    1    6 ar
     2    1    2 ar
     3    1   25 1
     4    2    3 ar
     5    2   26 1
     6    3    4 ar
     7    3   27 1
     8    4    5 ar
     9    4    7 1
    10    5    6 ar
    11    5   28 1
    12    6   29 1
    13    7   11 1
    14    7    8 2
    15    8    9 1
    16    8   30 1
    17    9   10 1
    18    9   18 1
    19   10   16 1
    20   10   11 2
    21   11   12 1
    22   12   13 2
    23   12   14 1
    24   13   31 1
    25   14   15 1
    26   14   17 1
    27   15   16 2
    28   15   32 1
    29   17   33 1
    30   17   34 1
    31   18   23 ar
    32   18   19 ar
    33   19   20 ar
    34   19   35 1
    35   20   21 ar
    36   20   36 1
    37   21   22 ar
    38   21   24 1
    39   22   23 ar
    40   22   37 1
    41   23   38 1
@<TRIPOS>Similarity
1.1749
@<TRIPOS>ShapeSim
0.6571
@<TRIPOS>PharmSim
0.5177
# END
# Name:		ZINC03852038
# Created and modified by SHAFTS on Mon Jun 23 14:53:19 2014

# 

@<TRIPOS>MOLECULE
ZINC03852038
   38    41     0
SMALL
USER_CHARGE


@<TRIPOS>ATOM
      1 C1          1.5134    4.9324    6.8356 C.ar      1 <1>        -0.1098
      2 C2          2.6856    4.2843    6.4899 C.ar      1 <1>        -0.0994
      3 C3          2.9135    3.9173    5.1793 C.ar      1 <1>        -0.0791
      4 C4          1.9599    4.2011    4.2028 C.ar      1 <1>        -0.0619
      5 C5          0.7802    4.8539    4.5572 C.ar      1 <1>        -0.0884
      6 C6          0.5631    5.2158    5.8711 C.ar      1 <1>        -0.1065
      7 C7          2.1990    3.8092    2.7930 C.2       1 <1>        -0.0194
      8 C8          1.3494    3.1244    1.9831 C.2       1 <1>        -0.0171
      9 N1          1.9283    2.9599    0.7547 N.pl3     1 <1>        -0.3054
     10 C9          3.1741    3.5254    0.7374 C.2       1 <1>         0.0431
     11 C10         3.3998    4.0777    1.9993 C.2       1 <1>         0.0572
     12 C11         4.6751    4.7523    2.2508 C.2       1 <1>         0.0025
     13 N2          4.9458    5.2916    3.4162 N.2       1 <1>        -0.4320
     14 N3          5.5824    4.7971    1.2067 N.pl3     1 <1>        -0.4555
     15 C12         5.2621    4.2262    0.0147 C.2       1 <1>         0.0258
     16 N4          4.1297    3.6289   -0.2040 N.2       1 <1>        -0.3385
     17 N5          6.7917    5.4105    1.3725 N.3       1 <1>         0.3831
     18 C13         1.3331    2.3007   -0.3293 C.ar      1 <1>        -0.0141
     19 C14         1.2960    2.9081   -1.5773 C.ar      1 <1>        -0.0460
     20 C15         0.7134    2.2541   -2.6452 C.ar      1 <1>        -0.0576
     21 C16         0.1573    0.9991   -2.4697 C.ar      1 <1>        -0.0088
     22 C17         0.1883    0.3938   -1.2256 C.ar      1 <1>        -0.0602
     23 C18         0.7743    1.0415   -0.1557 C.ar      1 <1>        -0.0492
     24 Cl1        -0.5801    0.1824   -3.8124 Cl        1 <1>        -0.1378
     25 H1          1.3392    5.2178    7.8625 H         1 <1>         0.1104
     26 H2          3.4258    4.0693    7.2463 H         1 <1>         0.1128
     27 H3          3.8293    3.4117    4.9104 H         1 <1>         0.1297
     28 H4          0.0380    5.0763    3.8050 H         1 <1>         0.1186
     29 H5         -0.3504    5.7216    6.1469 H         1 <1>         0.1111
     30 H6          0.3695    2.7678    2.2645 H         1 <1>         0.2059
     31 H7          5.7972    5.7334    3.5601 H         1 <1>         0.2513
     32 H8          5.9835    4.2714   -0.7878 H         1 <1>         0.3046
     33 H9          7.4854    4.7580    1.7059 H         1 <1>         0.0189
     34 H10         7.0930    5.8529    0.5171 H         1 <1>         0.0313
     35 H11         1.7260    3.8893   -1.7138 H         1 <1>         0.1479
     36 H12         0.6884    2.7242   -3.6172 H         1 <1>         0.1437
     37 H13        -0.2464   -0.5855   -1.0910 H         1 <1>         0.1434
     38 H14         0.7976    0.5691    0.8152 H         1 <1>         0.1452
@<TRIPOS>BOND
     1    1    6 ar
     2    1    2 ar
     3    1   25 1
     4    2    3 ar
     5    2   26 1
     6    3    4 ar
     7    3   27 1
     8    4    5 ar
     9    4    7 1
    10    5    6 ar
    11    5   28 1
    12    6   29 1
    13    7   11 1
    14    7    8 2
    15    8    9 1
    16    8   30 1
    17    9   10 1
    18    9   18 1
    19   10   16 1
    20   10   11 2
    21   11   12 1
    22   12   13 2
    23   12   14 1
    24   13   31 1
    25   14   15 1
    26   14   17 1
    27   15   16 2
    28   15   32 1
    29   17   33 1
    30   17   34 1
    31   18   23 ar
    32   18   19 ar
    33   19   20 ar
    34   19   35 1
    35   20   21 ar
    36   20   36 1
    37   21   22 ar
    38   21   24 1
    39   22   23 ar
    40   22   37 1
    41   23   38 1
@<TRIPOS>Similarity
1.1749
@<TRIPOS>ShapeSim
0.6571
@<TRIPOS>PharmSim
0.5177
# END
# Name:		ZINC03852038
# Created and modified by SHAFTS on Mon Jun 23 14:53:19 2014

# 

@<TRIPOS>MOLECULE
ZINC03852038
   38    41     0
SMALL
USER_CHARGE


@<TRIPOS>ATOM
      1 C1          1.5134    4.9324    6.8356 C.ar      1 <1>        -0.1098
      2 C2          2.6856    4.2843    6.4899 C.ar      1 <1>        -0.0994
      3 C3          2.9135    3.9173    5.1793 C.ar      1 <1>        -0.0791
      4 C4          1.9599    4.2011    4.2028 C.ar      1 <1>        -0.0619
      5 C5          0.7802    4.8539    4.5572 C.ar      1 <1>        -0.0884
      6 C6          0.5631    5.2158    5.8711 C.ar      1 <1>        -0.1065
      7 C7          2.1990    3.8092    2.7930 C.2       1 <1>        -0.0194
      8 C8          1.3494    3.1244    1.9831 C.2       1 <1>        -0.0171
      9 N1          1.9283    2.9599    0.7547 N.pl3     1 <1>        -0.3054
     10 C9          3.1741    3.5254    0.7374 C.2       1 <1>         0.0431
     11 C10         3.3998    4.0777    1.9993 C.2       1 <1>         0.0572
     12 C11         4.6751    4.7523    2.2508 C.2       1 <1>         0.0025
     13 N2          4.9458    5.2916    3.4162 N.2       1 <1>        -0.4320
     14 N3          5.5824    4.7971    1.2067 N.pl3     1 <1>        -0.4555
     15 C12         5.2621    4.2262    0.0147 C.2       1 <1>         0.0258
     16 N4          4.1297    3.6289   -0.2040 N.2       1 <1>        -0.3385
     17 N5          6.7917    5.4105    1.3725 N.3       1 <1>         0.3831
     18 C13         1.3331    2.3007   -0.3293 C.ar      1 <1>        -0.0141
     19 C14         1.2960    2.9081   -1.5773 C.ar      1 <1>        -0.0460
     20 C15         0.7134    2.2541   -2.6452 C.ar      1 <1>        -0.0576
     21 C16         0.1573    0.9991   -2.4697 C.ar      1 <1>        -0.0088
     22 C17         0.1883    0.3938   -1.2256 C.ar      1 <1>        -0.0602
     23 C18         0.7743    1.0415   -0.1557 C.ar      1 <1>        -0.0492
     24 Cl1        -0.5801    0.1824   -3.8124 Cl        1 <1>        -0.1378
     25 H1          1.3392    5.2178    7.8625 H         1 <1>         0.1104
     26 H2          3.4258    4.0693    7.2463 H         1 <1>         0.1128
     27 H3          3.8293    3.4117    4.9104 H         1 <1>         0.1297
     28 H4          0.0380    5.0763    3.8050 H         1 <1>         0.1186
     29 H5         -0.3504    5.7216    6.1469 H         1 <1>         0.1111
     30 H6          0.3695    2.7678    2.2645 H         1 <1>         0.2059
     31 H7          5.7972    5.7334    3.5601 H         1 <1>         0.2513
     32 H8          5.9835    4.2714   -0.7878 H         1 <1>         0.3046
     33 H9          7.4854    4.7580    1.7059 H         1 <1>         0.0189
     34 H10         7.0930    5.8529    0.5171 H         1 <1>         0.0313
     35 H11         1.7260    3.8893   -1.7138 H         1 <1>         0.1479
     36 H12         0.6884    2.7242   -3.6172 H         1 <1>         0.1437
     37 H13        -0.2464   -0.5855   -1.0910 H         1 <1>         0.1434
     38 H14         0.7976    0.5691    0.8152 H         1 <1>         0.1452
@<TRIPOS>BOND
     1    1    6 ar
     2    1    2 ar
     3    1   25 1
     4    2    3 ar
     5    2   26 1
     6    3    4 ar
     7    3   27 1
     8    4    5 ar
     9    4    7 1
    10    5    6 ar
    11    5   28 1
    12    6   29 1
    13    7   11 1
    14    7    8 2
    15    8    9 1
    16    8   30 1
    17    9   10 1
    18    9   18 1
    19   10   16 1
    20   10   11 2
    21   11   12 1
    22   12   13 2
    23   12   14 1
    24   13   31 1
    25   14   15 1
    26   14   17 1
    27   15   16 2
    28   15   32 1
    29   17   33 1
    30   17   34 1
    31   18   23 ar
    32   18   19 ar
    33   19   20 ar
    34   19   35 1
    35   20   21 ar
    36   20   36 1
    37   21   22 ar
    38   21   24 1
    39   22   23 ar
    40   22   37 1
    41   23   38 1
@<TRIPOS>Similarity
1.1749
@<TRIPOS>ShapeSim
0.6571
@<TRIPOS>PharmSim
0.5177
# END
# Name:		ZINC03852038
# Created and modified by SHAFTS on Mon Jun 23 14:53:19 2014

# 

@<TRIPOS>MOLECULE
ZINC03852038
   38    41     0
SMALL
USER_CHARGE


@<TRIPOS>ATOM
      1 C1          1.5134    4.9324    6.8356 C.ar      1 <1>        -0.1098
      2 C2          2.6856    4.2843    6.4899 C.ar      1 <1>        -0.0994
      3 C3          2.9135    3.9173    5.1793 C.ar      1 <1>        -0.0791
      4 C4          1.9599    4.2011    4.2028 C.ar      1 <1>        -0.0619
      5 C5          0.7802    4.8539    4.5572 C.ar      1 <1>        -0.0884
      6 C6          0.5631    5.2158    5.8711 C.ar      1 <1>        -0.1065
      7 C7          2.1990    3.8092    2.7930 C.2       1 <1>        -0.0194
      8 C8          1.3494    3.1244    1.9831 C.2       1 <1>        -0.0171
      9 N1          1.9283    2.9599    0.7547 N.pl3     1 <1>        -0.3054
     10 C9          3.1741    3.5254    0.7374 C.2       1 <1>         0.0431
     11 C10         3.3998    4.0777    1.9993 C.2       1 <1>         0.0572
     12 C11         4.6751    4.7523    2.2508 C.2       1 <1>         0.0025
     13 N2          4.9458    5.2916    3.4162 N.2       1 <1>        -0.4320
     14 N3          5.5824    4.7971    1.2067 N.pl3     1 <1>        -0.4555
     15 C12         5.2621    4.2262    0.0147 C.2       1 <1>         0.0258
     16 N4          4.1297    3.6289   -0.2040 N.2       1 <1>        -0.3385
     17 N5          6.7917    5.4105    1.3725 N.3       1 <1>         0.3831
     18 C13         1.3331    2.3007   -0.3293 C.ar      1 <1>        -0.0141
     19 C14         1.2960    2.9081   -1.5773 C.ar      1 <1>        -0.0460
     20 C15         0.7134    2.2541   -2.6452 C.ar      1 <1>        -0.0576
     21 C16         0.1573    0.9991   -2.4697 C.ar      1 <1>        -0.0088
     22 C17         0.1883    0.3938   -1.2256 C.ar      1 <1>        -0.0602
     23 C18         0.7743    1.0415   -0.1557 C.ar      1 <1>        -0.0492
     24 Cl1        -0.5801    0.1824   -3.8124 Cl        1 <1>        -0.1378
     25 H1          1.3392    5.2178    7.8625 H         1 <1>         0.1104
     26 H2          3.4258    4.0693    7.2463 H         1 <1>         0.1128
     27 H3          3.8293    3.4117    4.9104 H         1 <1>         0.1297
     28 H4          0.0380    5.0763    3.8050 H         1 <1>         0.1186
     29 H5         -0.3504    5.7216    6.1469 H         1 <1>         0.1111
     30 H6          0.3695    2.7678    2.2645 H         1 <1>         0.2059
     31 H7          5.7972    5.7334    3.5601 H         1 <1>         0.2513
     32 H8          5.9835    4.2714   -0.7878 H         1 <1>         0.3046
     33 H9          7.4854    4.7580    1.7059 H         1 <1>         0.0189
     34 H10         7.0930    5.8529    0.5171 H         1 <1>         0.0313
     35 H11         1.7260    3.8893   -1.7138 H         1 <1>         0.1479
     36 H12         0.6884    2.7242   -3.6172 H         1 <1>         0.1437
     37 H13        -0.2464   -0.5855   -1.0910 H         1 <1>         0.1434
     38 H14         0.7976    0.5691    0.8152 H         1 <1>         0.1452
@<TRIPOS>BOND
     1    1    6 ar
     2    1    2 ar
     3    1   25 1
     4    2    3 ar
     5    2   26 1
     6    3    4 ar
     7    3   27 1
     8    4    5 ar
     9    4    7 1
    10    5    6 ar
    11    5   28 1
    12    6   29 1
    13    7   11 1
    14    7    8 2
    15    8    9 1
    16    8   30 1
    17    9   10 1
    18    9   18 1
    19   10   16 1
    20   10   11 2
    21   11   12 1
    22   12   13 2
    23   12   14 1
    24   13   31 1
    25   14   15 1
    26   14   17 1
    27   15   16 2
    28   15   32 1
    29   17   33 1
    30   17   34 1
    31   18   23 ar
    32   18   19 ar
    33   19   20 ar
    34   19   35 1
    35   20   21 ar
    36   20   36 1
    37   21   22 ar
    38   21   24 1
    39   22   23 ar
    40   22   37 1
    41   23   38 1
@<TRIPOS>Similarity
1.1749
@<TRIPOS>ShapeSim
0.6571
@<TRIPOS>PharmSim
0.5177
# END
# Name:		ZINC03852038
# Created and modified by SHAFTS on Mon Jun 23 14:53:19 2014

# 

@<TRIPOS>MOLECULE
ZINC03852038
   38    41     0
SMALL
USER_CHARGE


@<TRIPOS>ATOM
      1 C1          1.5134    4.9324    6.8356 C.ar      1 <1>        -0.1098
      2 C2          2.6856    4.2843    6.4899 C.ar      1 <1>        -0.0994
      3 C3          2.9135    3.9173    5.1793 C.ar      1 <1>        -0.0791
      4 C4          1.9599    4.2011    4.2028 C.ar      1 <1>        -0.0619
      5 C5          0.7802    4.8539    4.5572 C.ar      1 <1>        -0.0884
      6 C6          0.5631    5.2158    5.8711 C.ar      1 <1>        -0.1065
      7 C7          2.1990    3.8092    2.7930 C.2       1 <1>        -0.0194
      8 C8          1.3494    3.1244    1.9831 C.2       1 <1>        -0.0171
      9 N1          1.9283    2.9599    0.7547 N.pl3     1 <1>        -0.3054
     10 C9          3.1741    3.5254    0.7374 C.2       1 <1>         0.0431
     11 C10         3.3998    4.0777    1.9993 C.2       1 <1>         0.0572
     12 C11         4.6751    4.7523    2.2508 C.2       1 <1>         0.0025
     13 N2          4.9458    5.2916    3.4162 N.2       1 <1>        -0.4320
     14 N3          5.5824    4.7971    1.2067 N.pl3     1 <1>        -0.4555
     15 C12         5.2621    4.2262    0.0147 C.2       1 <1>         0.0258
     16 N4          4.1297    3.6289   -0.2040 N.2       1 <1>        -0.3385
     17 N5          6.7917    5.4105    1.3725 N.3       1 <1>         0.3831
     18 C13         1.3331    2.3007   -0.3293 C.ar      1 <1>        -0.0141
     19 C14         1.2960    2.9081   -1.5773 C.ar      1 <1>        -0.0460
     20 C15         0.7134    2.2541   -2.6452 C.ar      1 <1>        -0.0576
     21 C16         0.1573    0.9991   -2.4697 C.ar      1 <1>        -0.0088
     22 C17         0.1883    0.3938   -1.2256 C.ar      1 <1>        -0.0602
     23 C18         0.7743    1.0415   -0.1557 C.ar      1 <1>        -0.0492
     24 Cl1        -0.5801    0.1824   -3.8124 Cl        1 <1>        -0.1378
     25 H1          1.3392    5.2178    7.8625 H         1 <1>         0.1104
     26 H2          3.4258    4.0693    7.2463 H         1 <1>         0.1128
     27 H3          3.8293    3.4117    4.9104 H         1 <1>         0.1297
     28 H4          0.0380    5.0763    3.8050 H         1 <1>         0.1186
     29 H5         -0.3504    5.7216    6.1469 H         1 <1>         0.1111
     30 H6          0.3695    2.7678    2.2645 H         1 <1>         0.2059
     31 H7          5.7972    5.7334    3.5601 H         1 <1>         0.2513
     32 H8          5.9835    4.2714   -0.7878 H         1 <1>         0.3046
     33 H9          7.4854    4.7580    1.7059 H         1 <1>         0.0189
     34 H10         7.0930    5.8529    0.5171 H         1 <1>         0.0313
     35 H11         1.7260    3.8893   -1.7138 H         1 <1>         0.1479
     36 H12         0.6884    2.7242   -3.6172 H         1 <1>         0.1437
     37 H13        -0.2464   -0.5855   -1.0910 H         1 <1>         0.1434
     38 H14         0.7976    0.5691    0.8152 H         1 <1>         0.1452
@<TRIPOS>BOND
     1    1    6 ar
     2    1    2 ar
     3    1   25 1
     4    2    3 ar
     5    2   26 1
     6    3    4 ar
     7    3   27 1
     8    4    5 ar
     9    4    7 1
    10    5    6 ar
    11    5   28 1
    12    6   29 1
    13    7   11 1
    14    7    8 2
    15    8    9 1
    16    8   30 1
    17    9   10 1
    18    9   18 1
    19   10   16 1
    20   10   11 2
    21   11   12 1
    22   12   13 2
    23   12   14 1
    24   13   31 1
    25   14   15 1
    26   14   17 1
    27   15   16 2
    28   15   32 1
    29   17   33 1
    30   17   34 1
    31   18   23 ar
    32   18   19 ar
    33   19   20 ar
    34   19   35 1
    35   20   21 ar
    36   20   36 1
    37   21   22 ar
    38   21   24 1
    39   22   23 ar
    40   22   37 1
    41   23   38 1
@<TRIPOS>Similarity
1.1749
@<TRIPOS>ShapeSim
0.6571
@<TRIPOS>PharmSim
0.5177
# END
# Name:		ZINC03852038
# Created and modified by SHAFTS on Mon Jun 23 14:53:19 2014

# 

@<TRIPOS>MOLECULE
ZINC03852038
   38    41     0
SMALL
USER_CHARGE


@<TRIPOS>ATOM
      1 C1          1.5134    4.9324    6.8356 C.ar      1 <1>        -0.1098
      2 C2          2.6856    4.2843    6.4899 C.ar      1 <1>        -0.0994
      3 C3          2.9135    3.9173    5.1793 C.ar      1 <1>        -0.0791
      4 C4          1.9599    4.2011    4.2028 C.ar      1 <1>        -0.0619
      5 C5          0.7802    4.8539    4.5572 C.ar      1 <1>        -0.0884
      6 C6          0.5631    5.2158    5.8711 C.ar      1 <1>        -0.1065
      7 C7          2.1990    3.8092    2.7930 C.2       1 <1>        -0.0194
      8 C8          1.3494    3.1244    1.9831 C.2       1 <1>        -0.0171
      9 N1          1.9283    2.9599    0.7547 N.pl3     1 <1>        -0.3054
     10 C9          3.1741    3.5254    0.7374 C.2       1 <1>         0.0431
     11 C10         3.3998    4.0777    1.9993 C.2       1 <1>         0.0572
     12 C11         4.6751    4.7523    2.2508 C.2       1 <1>         0.0025
     13 N2          4.9458    5.2916    3.4162 N.2       1 <1>        -0.4320
     14 N3          5.5824    4.7971    1.2067 N.pl3     1 <1>        -0.4555
     15 C12         5.2621    4.2262    0.0147 C.2       1 <1>         0.0258
     16 N4          4.1297    3.6289   -0.2040 N.2       1 <1>        -0.3385
     17 N5          6.7917    5.4105    1.3725 N.3       1 <1>         0.3831
     18 C13         1.3331    2.3007   -0.3293 C.ar      1 <1>        -0.0141
     19 C14         1.2960    2.9081   -1.5773 C.ar      1 <1>        -0.0460
     20 C15         0.7134    2.2541   -2.6452 C.ar      1 <1>        -0.0576
     21 C16         0.1573    0.9991   -2.4697 C.ar      1 <1>        -0.0088
     22 C17         0.1883    0.3938   -1.2256 C.ar      1 <1>        -0.0602
     23 C18         0.7743    1.0415   -0.1557 C.ar      1 <1>        -0.0492
     24 Cl1        -0.5801    0.1824   -3.8124 Cl        1 <1>        -0.1378
     25 H1          1.3392    5.2178    7.8625 H         1 <1>         0.1104
     26 H2          3.4258    4.0693    7.2463 H         1 <1>         0.1128
     27 H3          3.8293    3.4117    4.9104 H         1 <1>         0.1297
     28 H4          0.0380    5.0763    3.8050 H         1 <1>         0.1186
     29 H5         -0.3504    5.7216    6.1469 H         1 <1>         0.1111
     30 H6          0.3695    2.7678    2.2645 H         1 <1>         0.2059
     31 H7          5.7972    5.7334    3.5601 H         1 <1>         0.2513
     32 H8          5.9835    4.2714   -0.7878 H         1 <1>         0.3046
     33 H9          7.4854    4.7580    1.7059 H         1 <1>         0.0189
     34 H10         7.0930    5.8529    0.5171 H         1 <1>         0.0313
     35 H11         1.7260    3.8893   -1.7138 H         1 <1>         0.1479
     36 H12         0.6884    2.7242   -3.6172 H         1 <1>         0.1437
     37 H13        -0.2464   -0.5855   -1.0910 H         1 <1>         0.1434
     38 H14         0.7976    0.5691    0.8152 H         1 <1>         0.1452
@<TRIPOS>BOND
     1    1    6 ar
     2    1    2 ar
     3    1   25 1
     4    2    3 ar
     5    2   26 1
     6    3    4 ar
     7    3   27 1
     8    4    5 ar
     9    4    7 1
    10    5    6 ar
    11    5   28 1
    12    6   29 1
    13    7   11 1
    14    7    8 2
    15    8    9 1
    16    8   30 1
    17    9   10 1
    18    9   18 1
    19   10   16 1
    20   10   11 2
    21   11   12 1
    22   12   13 2
    23   12   14 1
    24   13   31 1
    25   14   15 1
    26   14   17 1
    27   15   16 2
    28   15   32 1
    29   17   33 1
    30   17   34 1
    31   18   23 ar
    32   18   19 ar
    33   19   20 ar
    34   19   35 1
    35   20   21 ar
    36   20   36 1
    37   21   22 ar
    38   21   24 1
    39   22   23 ar
    40   22   37 1
    41   23   38 1
@<TRIPOS>Similarity
1.1749
@<TRIPOS>ShapeSim
0.6571
@<TRIPOS>PharmSim
0.5177
# END
# Name:		ZINC03852038
# Created and modified by SHAFTS on Mon Jun 23 14:53:19 2014

# 

@<TRIPOS>MOLECULE
ZINC03852038
   38    41     0
SMALL
USER_CHARGE


@<TRIPOS>ATOM
      1 C1          1.5134    4.9324    6.8356 C.ar      1 <1>        -0.1098
      2 C2          2.6856    4.2843    6.4899 C.ar      1 <1>        -0.0994
      3 C3          2.9135    3.9173    5.1793 C.ar      1 <1>        -0.0791
      4 C4          1.9599    4.2011    4.2028 C.ar      1 <1>        -0.0619
      5 C5          0.7802    4.8539    4.5572 C.ar      1 <1>        -0.0884
      6 C6          0.5631    5.2158    5.8711 C.ar      1 <1>        -0.1065
      7 C7          2.1990    3.8092    2.7930 C.2       1 <1>        -0.0194
      8 C8          1.3494    3.1244    1.9831 C.2       1 <1>        -0.0171
      9 N1          1.9283    2.9599    0.7547 N.pl3     1 <1>        -0.3054
     10 C9          3.1741    3.5254    0.7374 C.2       1 <1>         0.0431
     11 C10         3.3998    4.0777    1.9993 C.2       1 <1>         0.0572
     12 C11         4.6751    4.7523    2.2508 C.2       1 <1>         0.0025
     13 N2          4.9458    5.2916    3.4162 N.2       1 <1>        -0.4320
     14 N3          5.5824    4.7971    1.2067 N.pl3     1 <1>        -0.4555
     15 C12         5.2621    4.2262    0.0147 C.2       1 <1>         0.0258
     16 N4          4.1297    3.6289   -0.2040 N.2       1 <1>        -0.3385
     17 N5          6.7917    5.4105    1.3725 N.3       1 <1>         0.3831
     18 C13         1.3331    2.3007   -0.3293 C.ar      1 <1>        -0.0141
     19 C14         1.2960    2.9081   -1.5773 C.ar      1 <1>        -0.0460
     20 C15         0.7134    2.2541   -2.6452 C.ar      1 <1>        -0.0576
     21 C16         0.1573    0.9991   -2.4697 C.ar      1 <1>        -0.0088
     22 C17         0.1883    0.3938   -1.2256 C.ar      1 <1>        -0.0602
     23 C18         0.7743    1.0415   -0.1557 C.ar      1 <1>        -0.0492
     24 Cl1        -0.5801    0.1824   -3.8124 Cl        1 <1>        -0.1378
     25 H1          1.3392    5.2178    7.8625 H         1 <1>         0.1104
     26 H2          3.4258    4.0693    7.2463 H         1 <1>         0.1128
     27 H3          3.8293    3.4117    4.9104 H         1 <1>         0.1297
     28 H4          0.0380    5.0763    3.8050 H         1 <1>         0.1186
     29 H5         -0.3504    5.7216    6.1469 H         1 <1>         0.1111
     30 H6          0.3695    2.7678    2.2645 H         1 <1>         0.2059
     31 H7          5.7972    5.7334    3.5601 H         1 <1>         0.2513
     32 H8          5.9835    4.2714   -0.7878 H         1 <1>         0.3046
     33 H9          7.4854    4.7580    1.7059 H         1 <1>         0.0189
     34 H10         7.0930    5.8529    0.5171 H         1 <1>         0.0313
     35 H11         1.7260    3.8893   -1.7138 H         1 <1>         0.1479
     36 H12         0.6884    2.7242   -3.6172 H         1 <1>         0.1437
     37 H13        -0.2464   -0.5855   -1.0910 H         1 <1>         0.1434
     38 H14         0.7976    0.5691    0.8152 H         1 <1>         0.1452
@<TRIPOS>BOND
     1    1    6 ar
     2    1    2 ar
     3    1   25 1
     4    2    3 ar
     5    2   26 1
     6    3    4 ar
     7    3   27 1
     8    4    5 ar
     9    4    7 1
    10    5    6 ar
    11    5   28 1
    12    6   29 1
    13    7   11 1
    14    7    8 2
    15    8    9 1
    16    8   30 1
    17    9   10 1
    18    9   18 1
    19   10   16 1
    20   10   11 2
    21   11   12 1
    22   12   13 2
    23   12   14 1
    24   13   31 1
    25   14   15 1
    26   14   17 1
    27   15   16 2
    28   15   32 1
    29   17   33 1
    30   17   34 1
    31   18   23 ar
    32   18   19 ar
    33   19   20 ar
    34   19   35 1
    35   20   21 ar
    36   20   36 1
    37   21   22 ar
    38   21   24 1
    39   22   23 ar
    40   22   37 1
    41   23   38 1
@<TRIPOS>Similarity
1.1749
@<TRIPOS>ShapeSim
0.6571
@<TRIPOS>PharmSim
0.5177
# END
# Name:		ZINC03852044
# Created and modified by SHAFTS on Mon Jun 23 14:53:19 2014

# 

@<TRIPOS>MOLECULE
ZINC03852044
   38    41     0
SMALL
USER_CHARGE


@<TRIPOS>ATOM
      1 C1          0.1582    0.9991   -2.4695 C.ar      1 <1>        -0.0994
      2 C2          0.1882    0.3945   -1.2262 C.ar      1 <1>        -0.0928
      3 C3          0.7741    1.0417   -0.1559 C.ar      1 <1>        -0.0619
      4 C4          1.3329    2.3009   -0.3292 C.ar      1 <1>        -0.0216
      5 C5          1.2958    2.9080   -1.5775 C.ar      1 <1>        -0.0586
      6 C6          0.7139    2.2531   -2.6453 C.ar      1 <1>        -0.0902
      7 N1          1.9279    2.9600    0.7544 N.pl3     1 <1>        -0.3062
      8 C7          1.3489    3.1243    1.9832 C.2       1 <1>        -0.0165
      9 C8          2.1985    3.8089    2.7931 C.2       1 <1>        -0.0180
     10 C9          3.3993    4.0776    1.9994 C.2       1 <1>         0.0567
     11 C10         3.1737    3.5255    0.7373 C.2       1 <1>         0.0436
     12 N2          4.1295    3.6289   -0.2038 N.2       1 <1>        -0.3378
     13 C11         5.2617    4.2265    0.0148 C.2       1 <1>         0.0259
     14 N3          5.5820    4.7973    1.2069 N.pl3     1 <1>        -0.4556
     15 C12         4.6746    4.7523    2.2510 C.2       1 <1>         0.0017
     16 N4          4.9453    5.2912    3.4166 N.2       1 <1>        -0.4330
     17 N5          6.7912    5.4105    1.3729 N.3       1 <1>         0.3831
     18 C13         1.9595    4.2005    4.2031 C.ar      1 <1>        -0.0551
     19 C14         0.7798    4.8534    4.5574 C.ar      1 <1>        -0.0758
     20 C15         0.5645    5.2200    5.8700 C.ar      1 <1>        -0.0734
     21 C16         1.5129    4.9312    6.8364 C.ar      1 <1>        -0.0201
     22 C17         2.6861    4.2831    6.4899 C.ar      1 <1>        -0.0664
     23 C18         2.9136    3.9169    5.1791 C.ar      1 <1>        -0.0667
     24 Cl1         1.2329    5.3893    8.4873 Cl        1 <1>        -0.1513
     25 H1         -0.2998    0.4907   -3.3051 H         1 <1>         0.1228
     26 H2         -0.2466   -0.5849   -1.0921 H         1 <1>         0.1270
     27 H3          0.7977    0.5687    0.8146 H         1 <1>         0.1327
     28 H4          1.7257    3.8893   -1.7143 H         1 <1>         0.1358
     29 H5          0.6890    2.7228   -3.6175 H         1 <1>         0.1273
     30 H6          0.3691    2.7677    2.2647 H         1 <1>         0.2071
     31 H7          5.9829    4.2721   -0.7877 H         1 <1>         0.3043
     32 H8          5.7968    5.7331    3.5607 H         1 <1>         0.2510
     33 H9          7.4848    4.7580    1.7063 H         1 <1>         0.0189
     34 H10         7.0926    5.8530    0.5176 H         1 <1>         0.0314
     35 H11         0.0377    5.0758    3.8049 H         1 <1>         0.1309
     36 H12        -0.3472    5.7297    6.1448 H         1 <1>         0.1283
     37 H13         3.4248    4.0641    7.2467 H         1 <1>         0.1300
     38 H14         3.8293    3.4116    4.9097 H         1 <1>         0.1417
@<TRIPOS>BOND
     1    1    6 ar
     2    1    2 ar
     3    1   25 1
     4    2    3 ar
     5    2   26 1
     6    3    4 ar
     7    3   27 1
     8    4    5 ar
     9    4    7 1
    10    5    6 ar
    11    5   28 1
    12    6   29 1
    13    7   11 1
    14    7    8 1
    15    8    9 2
    16    8   30 1
    17    9   10 1
    18    9   18 1
    19   10   15 1
    20   10   11 2
    21   11   12 1
    22   12   13 2
    23   13   14 1
    24   13   31 1
    25   14   15 1
    26   14   17 1
    27   15   16 2
    28   16   32 1
    29   17   33 1
    30   17   34 1
    31   18   23 ar
    32   18   19 ar
    33   19   20 ar
    34   19   35 1
    35   20   21 ar
    36   20   36 1
    37   21   22 ar
    38   21   24 1
    39   22   23 ar
    40   22   37 1
    41   23   38 1
@<TRIPOS>Similarity
1.1747
@<TRIPOS>ShapeSim
0.6571
@<TRIPOS>PharmSim
0.5176
# END
# Name:		ZINC03852044
# Created and modified by SHAFTS on Mon Jun 23 14:53:19 2014

# 

@<TRIPOS>MOLECULE
ZINC03852044
   38    41     0
SMALL
USER_CHARGE


@<TRIPOS>ATOM
      1 C1          0.1582    0.9991   -2.4695 C.ar      1 <1>        -0.0994
      2 C2          0.1882    0.3945   -1.2262 C.ar      1 <1>        -0.0928
      3 C3          0.7741    1.0417   -0.1559 C.ar      1 <1>        -0.0619
      4 C4          1.3329    2.3009   -0.3292 C.ar      1 <1>        -0.0216
      5 C5          1.2958    2.9080   -1.5775 C.ar      1 <1>        -0.0586
      6 C6          0.7139    2.2531   -2.6453 C.ar      1 <1>        -0.0902
      7 N1          1.9279    2.9600    0.7544 N.pl3     1 <1>        -0.3062
      8 C7          1.3489    3.1243    1.9832 C.2       1 <1>        -0.0165
      9 C8          2.1985    3.8089    2.7931 C.2       1 <1>        -0.0180
     10 C9          3.3993    4.0776    1.9994 C.2       1 <1>         0.0567
     11 C10         3.1737    3.5255    0.7373 C.2       1 <1>         0.0436
     12 N2          4.1295    3.6289   -0.2038 N.2       1 <1>        -0.3378
     13 C11         5.2617    4.2265    0.0148 C.2       1 <1>         0.0259
     14 N3          5.5820    4.7973    1.2069 N.pl3     1 <1>        -0.4556
     15 C12         4.6746    4.7523    2.2510 C.2       1 <1>         0.0017
     16 N4          4.9453    5.2912    3.4166 N.2       1 <1>        -0.4330
     17 N5          6.7912    5.4105    1.3729 N.3       1 <1>         0.3831
     18 C13         1.9595    4.2005    4.2031 C.ar      1 <1>        -0.0551
     19 C14         0.7798    4.8534    4.5574 C.ar      1 <1>        -0.0758
     20 C15         0.5645    5.2200    5.8700 C.ar      1 <1>        -0.0734
     21 C16         1.5129    4.9312    6.8364 C.ar      1 <1>        -0.0201
     22 C17         2.6861    4.2831    6.4899 C.ar      1 <1>        -0.0664
     23 C18         2.9136    3.9169    5.1791 C.ar      1 <1>        -0.0667
     24 Cl1         1.2329    5.3893    8.4873 Cl        1 <1>        -0.1513
     25 H1         -0.2998    0.4907   -3.3051 H         1 <1>         0.1228
     26 H2         -0.2466   -0.5849   -1.0921 H         1 <1>         0.1270
     27 H3          0.7977    0.5687    0.8146 H         1 <1>         0.1327
     28 H4          1.7257    3.8893   -1.7143 H         1 <1>         0.1358
     29 H5          0.6890    2.7228   -3.6175 H         1 <1>         0.1273
     30 H6          0.3691    2.7677    2.2647 H         1 <1>         0.2071
     31 H7          5.9829    4.2721   -0.7877 H         1 <1>         0.3043
     32 H8          5.7968    5.7331    3.5607 H         1 <1>         0.2510
     33 H9          7.4848    4.7580    1.7063 H         1 <1>         0.0189
     34 H10         7.0926    5.8530    0.5176 H         1 <1>         0.0314
     35 H11         0.0377    5.0758    3.8049 H         1 <1>         0.1309
     36 H12        -0.3472    5.7297    6.1448 H         1 <1>         0.1283
     37 H13         3.4248    4.0641    7.2467 H         1 <1>         0.1300
     38 H14         3.8293    3.4116    4.9097 H         1 <1>         0.1417
@<TRIPOS>BOND
     1    1    6 ar
     2    1    2 ar
     3    1   25 1
     4    2    3 ar
     5    2   26 1
     6    3    4 ar
     7    3   27 1
     8    4    5 ar
     9    4    7 1
    10    5    6 ar
    11    5   28 1
    12    6   29 1
    13    7   11 1
    14    7    8 1
    15    8    9 2
    16    8   30 1
    17    9   10 1
    18    9   18 1
    19   10   15 1
    20   10   11 2
    21   11   12 1
    22   12   13 2
    23   13   14 1
    24   13   31 1
    25   14   15 1
    26   14   17 1
    27   15   16 2
    28   16   32 1
    29   17   33 1
    30   17   34 1
    31   18   23 ar
    32   18   19 ar
    33   19   20 ar
    34   19   35 1
    35   20   21 ar
    36   20   36 1
    37   21   22 ar
    38   21   24 1
    39   22   23 ar
    40   22   37 1
    41   23   38 1
@<TRIPOS>Similarity
1.1747
@<TRIPOS>ShapeSim
0.6571
@<TRIPOS>PharmSim
0.5176
# END
# Name:		ZINC03852044
# Created and modified by SHAFTS on Mon Jun 23 14:53:19 2014

# 

@<TRIPOS>MOLECULE
ZINC03852044
   38    41     0
SMALL
USER_CHARGE


@<TRIPOS>ATOM
      1 C1          0.1582    0.9991   -2.4695 C.ar      1 <1>        -0.0994
      2 C2          0.1882    0.3945   -1.2262 C.ar      1 <1>        -0.0928
      3 C3          0.7741    1.0417   -0.1559 C.ar      1 <1>        -0.0619
      4 C4          1.3329    2.3009   -0.3292 C.ar      1 <1>        -0.0216
      5 C5          1.2958    2.9080   -1.5775 C.ar      1 <1>        -0.0586
      6 C6          0.7139    2.2531   -2.6453 C.ar      1 <1>        -0.0902
      7 N1          1.9279    2.9600    0.7544 N.pl3     1 <1>        -0.3062
      8 C7          1.3489    3.1243    1.9832 C.2       1 <1>        -0.0165
      9 C8          2.1985    3.8089    2.7931 C.2       1 <1>        -0.0180
     10 C9          3.3993    4.0776    1.9994 C.2       1 <1>         0.0567
     11 C10         3.1737    3.5255    0.7373 C.2       1 <1>         0.0436
     12 N2          4.1295    3.6289   -0.2038 N.2       1 <1>        -0.3378
     13 C11         5.2617    4.2265    0.0148 C.2       1 <1>         0.0259
     14 N3          5.5820    4.7973    1.2069 N.pl3     1 <1>        -0.4556
     15 C12         4.6746    4.7523    2.2510 C.2       1 <1>         0.0017
     16 N4          4.9453    5.2912    3.4166 N.2       1 <1>        -0.4330
     17 N5          6.7912    5.4105    1.3729 N.3       1 <1>         0.3831
     18 C13         1.9595    4.2005    4.2031 C.ar      1 <1>        -0.0551
     19 C14         0.7798    4.8534    4.5574 C.ar      1 <1>        -0.0758
     20 C15         0.5645    5.2200    5.8700 C.ar      1 <1>        -0.0734
     21 C16         1.5129    4.9312    6.8364 C.ar      1 <1>        -0.0201
     22 C17         2.6861    4.2831    6.4899 C.ar      1 <1>        -0.0664
     23 C18         2.9136    3.9169    5.1791 C.ar      1 <1>        -0.0667
     24 Cl1         1.2329    5.3893    8.4873 Cl        1 <1>        -0.1513
     25 H1         -0.2998    0.4907   -3.3051 H         1 <1>         0.1228
     26 H2         -0.2466   -0.5849   -1.0921 H         1 <1>         0.1270
     27 H3          0.7977    0.5687    0.8146 H         1 <1>         0.1327
     28 H4          1.7257    3.8893   -1.7143 H         1 <1>         0.1358
     29 H5          0.6890    2.7228   -3.6175 H         1 <1>         0.1273
     30 H6          0.3691    2.7677    2.2647 H         1 <1>         0.2071
     31 H7          5.9829    4.2721   -0.7877 H         1 <1>         0.3043
     32 H8          5.7968    5.7331    3.5607 H         1 <1>         0.2510
     33 H9          7.4848    4.7580    1.7063 H         1 <1>         0.0189
     34 H10         7.0926    5.8530    0.5176 H         1 <1>         0.0314
     35 H11         0.0377    5.0758    3.8049 H         1 <1>         0.1309
     36 H12        -0.3472    5.7297    6.1448 H         1 <1>         0.1283
     37 H13         3.4248    4.0641    7.2467 H         1 <1>         0.1300
     38 H14         3.8293    3.4116    4.9097 H         1 <1>         0.1417
@<TRIPOS>BOND
     1    1    6 ar
     2    1    2 ar
     3    1   25 1
     4    2    3 ar
     5    2   26 1
     6    3    4 ar
     7    3   27 1
     8    4    5 ar
     9    4    7 1
    10    5    6 ar
    11    5   28 1
    12    6   29 1
    13    7   11 1
    14    7    8 1
    15    8    9 2
    16    8   30 1
    17    9   10 1
    18    9   18 1
    19   10   15 1
    20   10   11 2
    21   11   12 1
    22   12   13 2
    23   13   14 1
    24   13   31 1
    25   14   15 1
    26   14   17 1
    27   15   16 2
    28   16   32 1
    29   17   33 1
    30   17   34 1
    31   18   23 ar
    32   18   19 ar
    33   19   20 ar
    34   19   35 1
    35   20   21 ar
    36   20   36 1
    37   21   22 ar
    38   21   24 1
    39   22   23 ar
    40   22   37 1
    41   23   38 1
@<TRIPOS>Similarity
1.1747
@<TRIPOS>ShapeSim
0.6571
@<TRIPOS>PharmSim
0.5176
# END
# Name:		ZINC03852044
# Created and modified by SHAFTS on Mon Jun 23 14:53:19 2014

# 

@<TRIPOS>MOLECULE
ZINC03852044
   38    41     0
SMALL
USER_CHARGE


@<TRIPOS>ATOM
      1 C1          0.1582    0.9991   -2.4695 C.ar      1 <1>        -0.0994
      2 C2          0.1882    0.3945   -1.2262 C.ar      1 <1>        -0.0928
      3 C3          0.7741    1.0417   -0.1559 C.ar      1 <1>        -0.0619
      4 C4          1.3329    2.3009   -0.3292 C.ar      1 <1>        -0.0216
      5 C5          1.2958    2.9080   -1.5775 C.ar      1 <1>        -0.0586
      6 C6          0.7139    2.2531   -2.6453 C.ar      1 <1>        -0.0902
      7 N1          1.9279    2.9600    0.7544 N.pl3     1 <1>        -0.3062
      8 C7          1.3489    3.1243    1.9832 C.2       1 <1>        -0.0165
      9 C8          2.1985    3.8089    2.7931 C.2       1 <1>        -0.0180
     10 C9          3.3993    4.0776    1.9994 C.2       1 <1>         0.0567
     11 C10         3.1737    3.5255    0.7373 C.2       1 <1>         0.0436
     12 N2          4.1295    3.6289   -0.2038 N.2       1 <1>        -0.3378
     13 C11         5.2617    4.2265    0.0148 C.2       1 <1>         0.0259
     14 N3          5.5820    4.7973    1.2069 N.pl3     1 <1>        -0.4556
     15 C12         4.6746    4.7523    2.2510 C.2       1 <1>         0.0017
     16 N4          4.9453    5.2912    3.4166 N.2       1 <1>        -0.4330
     17 N5          6.7912    5.4105    1.3729 N.3       1 <1>         0.3831
     18 C13         1.9595    4.2005    4.2031 C.ar      1 <1>        -0.0551
     19 C14         0.7798    4.8534    4.5574 C.ar      1 <1>        -0.0758
     20 C15         0.5645    5.2200    5.8700 C.ar      1 <1>        -0.0734
     21 C16         1.5129    4.9312    6.8364 C.ar      1 <1>        -0.0201
     22 C17         2.6861    4.2831    6.4899 C.ar      1 <1>        -0.0664
     23 C18         2.9136    3.9169    5.1791 C.ar      1 <1>        -0.0667
     24 Cl1         1.2329    5.3893    8.4873 Cl        1 <1>        -0.1513
     25 H1         -0.2998    0.4907   -3.3051 H         1 <1>         0.1228
     26 H2         -0.2466   -0.5849   -1.0921 H         1 <1>         0.1270
     27 H3          0.7977    0.5687    0.8146 H         1 <1>         0.1327
     28 H4          1.7257    3.8893   -1.7143 H         1 <1>         0.1358
     29 H5          0.6890    2.7228   -3.6175 H         1 <1>         0.1273
     30 H6          0.3691    2.7677    2.2647 H         1 <1>         0.2071
     31 H7          5.9829    4.2721   -0.7877 H         1 <1>         0.3043
     32 H8          5.7968    5.7331    3.5607 H         1 <1>         0.2510
     33 H9          7.4848    4.7580    1.7063 H         1 <1>         0.0189
     34 H10         7.0926    5.8530    0.5176 H         1 <1>         0.0314
     35 H11         0.0377    5.0758    3.8049 H         1 <1>         0.1309
     36 H12        -0.3472    5.7297    6.1448 H         1 <1>         0.1283
     37 H13         3.4248    4.0641    7.2467 H         1 <1>         0.1300
     38 H14         3.8293    3.4116    4.9097 H         1 <1>         0.1417
@<TRIPOS>BOND
     1    1    6 ar
     2    1    2 ar
     3    1   25 1
     4    2    3 ar
     5    2   26 1
     6    3    4 ar
     7    3   27 1
     8    4    5 ar
     9    4    7 1
    10    5    6 ar
    11    5   28 1
    12    6   29 1
    13    7   11 1
    14    7    8 1
    15    8    9 2
    16    8   30 1
    17    9   10 1
    18    9   18 1
    19   10   15 1
    20   10   11 2
    21   11   12 1
    22   12   13 2
    23   13   14 1
    24   13   31 1
    25   14   15 1
    26   14   17 1
    27   15   16 2
    28   16   32 1
    29   17   33 1
    30   17   34 1
    31   18   23 ar
    32   18   19 ar
    33   19   20 ar
    34   19   35 1
    35   20   21 ar
    36   20   36 1
    37   21   22 ar
    38   21   24 1
    39   22   23 ar
    40   22   37 1
    41   23   38 1
@<TRIPOS>Similarity
1.1747
@<TRIPOS>ShapeSim
0.6571
@<TRIPOS>PharmSim
0.5176
# END
# Name:		ZINC03852044
# Created and modified by SHAFTS on Mon Jun 23 14:53:19 2014

# 

@<TRIPOS>MOLECULE
ZINC03852044
   38    41     0
SMALL
USER_CHARGE


@<TRIPOS>ATOM
      1 C1          0.1582    0.9991   -2.4695 C.ar      1 <1>        -0.0994
      2 C2          0.1882    0.3945   -1.2262 C.ar      1 <1>        -0.0928
      3 C3          0.7741    1.0417   -0.1559 C.ar      1 <1>        -0.0619
      4 C4          1.3329    2.3009   -0.3292 C.ar      1 <1>        -0.0216
      5 C5          1.2958    2.9080   -1.5775 C.ar      1 <1>        -0.0586
      6 C6          0.7139    2.2531   -2.6453 C.ar      1 <1>        -0.0902
      7 N1          1.9279    2.9600    0.7544 N.pl3     1 <1>        -0.3062
      8 C7          1.3489    3.1243    1.9832 C.2       1 <1>        -0.0165
      9 C8          2.1985    3.8089    2.7931 C.2       1 <1>        -0.0180
     10 C9          3.3993    4.0776    1.9994 C.2       1 <1>         0.0567
     11 C10         3.1737    3.5255    0.7373 C.2       1 <1>         0.0436
     12 N2          4.1295    3.6289   -0.2038 N.2       1 <1>        -0.3378
     13 C11         5.2617    4.2265    0.0148 C.2       1 <1>         0.0259
     14 N3          5.5820    4.7973    1.2069 N.pl3     1 <1>        -0.4556
     15 C12         4.6746    4.7523    2.2510 C.2       1 <1>         0.0017
     16 N4          4.9453    5.2912    3.4166 N.2       1 <1>        -0.4330
     17 N5          6.7912    5.4105    1.3729 N.3       1 <1>         0.3831
     18 C13         1.9595    4.2005    4.2031 C.ar      1 <1>        -0.0551
     19 C14         0.7798    4.8534    4.5574 C.ar      1 <1>        -0.0758
     20 C15         0.5645    5.2200    5.8700 C.ar      1 <1>        -0.0734
     21 C16         1.5129    4.9312    6.8364 C.ar      1 <1>        -0.0201
     22 C17         2.6861    4.2831    6.4899 C.ar      1 <1>        -0.0664
     23 C18         2.9136    3.9169    5.1791 C.ar      1 <1>        -0.0667
     24 Cl1         1.2329    5.3893    8.4873 Cl        1 <1>        -0.1513
     25 H1         -0.2998    0.4907   -3.3051 H         1 <1>         0.1228
     26 H2         -0.2466   -0.5849   -1.0921 H         1 <1>         0.1270
     27 H3          0.7977    0.5687    0.8146 H         1 <1>         0.1327
     28 H4          1.7257    3.8893   -1.7143 H         1 <1>         0.1358
     29 H5          0.6890    2.7228   -3.6175 H         1 <1>         0.1273
     30 H6          0.3691    2.7677    2.2647 H         1 <1>         0.2071
     31 H7          5.9829    4.2721   -0.7877 H         1 <1>         0.3043
     32 H8          5.7968    5.7331    3.5607 H         1 <1>         0.2510
     33 H9          7.4848    4.7580    1.7063 H         1 <1>         0.0189
     34 H10         7.0926    5.8530    0.5176 H         1 <1>         0.0314
     35 H11         0.0377    5.0758    3.8049 H         1 <1>         0.1309
     36 H12        -0.3472    5.7297    6.1448 H         1 <1>         0.1283
     37 H13         3.4248    4.0641    7.2467 H         1 <1>         0.1300
     38 H14         3.8293    3.4116    4.9097 H         1 <1>         0.1417
@<TRIPOS>BOND
     1    1    6 ar
     2    1    2 ar
     3    1   25 1
     4    2    3 ar
     5    2   26 1
     6    3    4 ar
     7    3   27 1
     8    4    5 ar
     9    4    7 1
    10    5    6 ar
    11    5   28 1
    12    6   29 1
    13    7   11 1
    14    7    8 1
    15    8    9 2
    16    8   30 1
    17    9   10 1
    18    9   18 1
    19   10   15 1
    20   10   11 2
    21   11   12 1
    22   12   13 2
    23   13   14 1
    24   13   31 1
    25   14   15 1
    26   14   17 1
    27   15   16 2
    28   16   32 1
    29   17   33 1
    30   17   34 1
    31   18   23 ar
    32   18   19 ar
    33   19   20 ar
    34   19   35 1
    35   20   21 ar
    36   20   36 1
    37   21   22 ar
    38   21   24 1
    39   22   23 ar
    40   22   37 1
    41   23   38 1
@<TRIPOS>Similarity
1.1747
@<TRIPOS>ShapeSim
0.6571
@<TRIPOS>PharmSim
0.5176
# END
# Name:		ZINC03852044
# Created and modified by SHAFTS on Mon Jun 23 14:53:19 2014

# 

@<TRIPOS>MOLECULE
ZINC03852044
   38    41     0
SMALL
USER_CHARGE


@<TRIPOS>ATOM
      1 C1          0.1582    0.9991   -2.4695 C.ar      1 <1>        -0.0994
      2 C2          0.1882    0.3945   -1.2262 C.ar      1 <1>        -0.0928
      3 C3          0.7741    1.0417   -0.1559 C.ar      1 <1>        -0.0619
      4 C4          1.3329    2.3009   -0.3292 C.ar      1 <1>        -0.0216
      5 C5          1.2958    2.9080   -1.5775 C.ar      1 <1>        -0.0586
      6 C6          0.7139    2.2531   -2.6453 C.ar      1 <1>        -0.0902
      7 N1          1.9279    2.9600    0.7544 N.pl3     1 <1>        -0.3062
      8 C7          1.3489    3.1243    1.9832 C.2       1 <1>        -0.0165
      9 C8          2.1985    3.8089    2.7931 C.2       1 <1>        -0.0180
     10 C9          3.3993    4.0776    1.9994 C.2       1 <1>         0.0567
     11 C10         3.1737    3.5255    0.7373 C.2       1 <1>         0.0436
     12 N2          4.1295    3.6289   -0.2038 N.2       1 <1>        -0.3378
     13 C11         5.2617    4.2265    0.0148 C.2       1 <1>         0.0259
     14 N3          5.5820    4.7973    1.2069 N.pl3     1 <1>        -0.4556
     15 C12         4.6746    4.7523    2.2510 C.2       1 <1>         0.0017
     16 N4          4.9453    5.2912    3.4166 N.2       1 <1>        -0.4330
     17 N5          6.7912    5.4105    1.3729 N.3       1 <1>         0.3831
     18 C13         1.9595    4.2005    4.2031 C.ar      1 <1>        -0.0551
     19 C14         0.7798    4.8534    4.5574 C.ar      1 <1>        -0.0758
     20 C15         0.5645    5.2200    5.8700 C.ar      1 <1>        -0.0734
     21 C16         1.5129    4.9312    6.8364 C.ar      1 <1>        -0.0201
     22 C17         2.6861    4.2831    6.4899 C.ar      1 <1>        -0.0664
     23 C18         2.9136    3.9169    5.1791 C.ar      1 <1>        -0.0667
     24 Cl1         1.2329    5.3893    8.4873 Cl        1 <1>        -0.1513
     25 H1         -0.2998    0.4907   -3.3051 H         1 <1>         0.1228
     26 H2         -0.2466   -0.5849   -1.0921 H         1 <1>         0.1270
     27 H3          0.7977    0.5687    0.8146 H         1 <1>         0.1327
     28 H4          1.7257    3.8893   -1.7143 H         1 <1>         0.1358
     29 H5          0.6890    2.7228   -3.6175 H         1 <1>         0.1273
     30 H6          0.3691    2.7677    2.2647 H         1 <1>         0.2071
     31 H7          5.9829    4.2721   -0.7877 H         1 <1>         0.3043
     32 H8          5.7968    5.7331    3.5607 H         1 <1>         0.2510
     33 H9          7.4848    4.7580    1.7063 H         1 <1>         0.0189
     34 H10         7.0926    5.8530    0.5176 H         1 <1>         0.0314
     35 H11         0.0377    5.0758    3.8049 H         1 <1>         0.1309
     36 H12        -0.3472    5.7297    6.1448 H         1 <1>         0.1283
     37 H13         3.4248    4.0641    7.2467 H         1 <1>         0.1300
     38 H14         3.8293    3.4116    4.9097 H         1 <1>         0.1417
@<TRIPOS>BOND
     1    1    6 ar
     2    1    2 ar
     3    1   25 1
     4    2    3 ar
     5    2   26 1
     6    3    4 ar
     7    3   27 1
     8    4    5 ar
     9    4    7 1
    10    5    6 ar
    11    5   28 1
    12    6   29 1
    13    7   11 1
    14    7    8 1
    15    8    9 2
    16    8   30 1
    17    9   10 1
    18    9   18 1
    19   10   15 1
    20   10   11 2
    21   11   12 1
    22   12   13 2
    23   13   14 1
    24   13   31 1
    25   14   15 1
    26   14   17 1
    27   15   16 2
    28   16   32 1
    29   17   33 1
    30   17   34 1
    31   18   23 ar
    32   18   19 ar
    33   19   20 ar
    34   19   35 1
    35   20   21 ar
    36   20   36 1
    37   21   22 ar
    38   21   24 1
    39   22   23 ar
    40   22   37 1
    41   23   38 1
@<TRIPOS>Similarity
1.1747
@<TRIPOS>ShapeSim
0.6571
@<TRIPOS>PharmSim
0.5176
# END
# Name:		ZINC03852044
# Created and modified by SHAFTS on Mon Jun 23 14:53:19 2014

# 

@<TRIPOS>MOLECULE
ZINC03852044
   38    41     0
SMALL
USER_CHARGE


@<TRIPOS>ATOM
      1 C1          0.1582    0.9991   -2.4695 C.ar      1 <1>        -0.0994
      2 C2          0.1882    0.3945   -1.2262 C.ar      1 <1>        -0.0928
      3 C3          0.7741    1.0417   -0.1559 C.ar      1 <1>        -0.0619
      4 C4          1.3329    2.3009   -0.3292 C.ar      1 <1>        -0.0216
      5 C5          1.2958    2.9080   -1.5775 C.ar      1 <1>        -0.0586
      6 C6          0.7139    2.2531   -2.6453 C.ar      1 <1>        -0.0902
      7 N1          1.9279    2.9600    0.7544 N.pl3     1 <1>        -0.3062
      8 C7          1.3489    3.1243    1.9832 C.2       1 <1>        -0.0165
      9 C8          2.1985    3.8089    2.7931 C.2       1 <1>        -0.0180
     10 C9          3.3993    4.0776    1.9994 C.2       1 <1>         0.0567
     11 C10         3.1737    3.5255    0.7373 C.2       1 <1>         0.0436
     12 N2          4.1295    3.6289   -0.2038 N.2       1 <1>        -0.3378
     13 C11         5.2617    4.2265    0.0148 C.2       1 <1>         0.0259
     14 N3          5.5820    4.7973    1.2069 N.pl3     1 <1>        -0.4556
     15 C12         4.6746    4.7523    2.2510 C.2       1 <1>         0.0017
     16 N4          4.9453    5.2912    3.4166 N.2       1 <1>        -0.4330
     17 N5          6.7912    5.4105    1.3729 N.3       1 <1>         0.3831
     18 C13         1.9595    4.2005    4.2031 C.ar      1 <1>        -0.0551
     19 C14         0.7798    4.8534    4.5574 C.ar      1 <1>        -0.0758
     20 C15         0.5645    5.2200    5.8700 C.ar      1 <1>        -0.0734
     21 C16         1.5129    4.9312    6.8364 C.ar      1 <1>        -0.0201
     22 C17         2.6861    4.2831    6.4899 C.ar      1 <1>        -0.0664
     23 C18         2.9136    3.9169    5.1791 C.ar      1 <1>        -0.0667
     24 Cl1         1.2329    5.3893    8.4873 Cl        1 <1>        -0.1513
     25 H1         -0.2998    0.4907   -3.3051 H         1 <1>         0.1228
     26 H2         -0.2466   -0.5849   -1.0921 H         1 <1>         0.1270
     27 H3          0.7977    0.5687    0.8146 H         1 <1>         0.1327
     28 H4          1.7257    3.8893   -1.7143 H         1 <1>         0.1358
     29 H5          0.6890    2.7228   -3.6175 H         1 <1>         0.1273
     30 H6          0.3691    2.7677    2.2647 H         1 <1>         0.2071
     31 H7          5.9829    4.2721   -0.7877 H         1 <1>         0.3043
     32 H8          5.7968    5.7331    3.5607 H         1 <1>         0.2510
     33 H9          7.4848    4.7580    1.7063 H         1 <1>         0.0189
     34 H10         7.0926    5.8530    0.5176 H         1 <1>         0.0314
     35 H11         0.0377    5.0758    3.8049 H         1 <1>         0.1309
     36 H12        -0.3472    5.7297    6.1448 H         1 <1>         0.1283
     37 H13         3.4248    4.0641    7.2467 H         1 <1>         0.1300
     38 H14         3.8293    3.4116    4.9097 H         1 <1>         0.1417
@<TRIPOS>BOND
     1    1    6 ar
     2    1    2 ar
     3    1   25 1
     4    2    3 ar
     5    2   26 1
     6    3    4 ar
     7    3   27 1
     8    4    5 ar
     9    4    7 1
    10    5    6 ar
    11    5   28 1
    12    6   29 1
    13    7   11 1
    14    7    8 1
    15    8    9 2
    16    8   30 1
    17    9   10 1
    18    9   18 1
    19   10   15 1
    20   10   11 2
    21   11   12 1
    22   12   13 2
    23   13   14 1
    24   13   31 1
    25   14   15 1
    26   14   17 1
    27   15   16 2
    28   16   32 1
    29   17   33 1
    30   17   34 1
    31   18   23 ar
    32   18   19 ar
    33   19   20 ar
    34   19   35 1
    35   20   21 ar
    36   20   36 1
    37   21   22 ar
    38   21   24 1
    39   22   23 ar
    40   22   37 1
    41   23   38 1
@<TRIPOS>Similarity
1.1747
@<TRIPOS>ShapeSim
0.6571
@<TRIPOS>PharmSim
0.5176
# END
# Name:		ZINC03852044
# Created and modified by SHAFTS on Mon Jun 23 14:53:19 2014

# 

@<TRIPOS>MOLECULE
ZINC03852044
   38    41     0
SMALL
USER_CHARGE


@<TRIPOS>ATOM
      1 C1          0.1582    0.9991   -2.4695 C.ar      1 <1>        -0.0994
      2 C2          0.1882    0.3945   -1.2262 C.ar      1 <1>        -0.0928
      3 C3          0.7741    1.0417   -0.1559 C.ar      1 <1>        -0.0619
      4 C4          1.3329    2.3009   -0.3292 C.ar      1 <1>        -0.0216
      5 C5          1.2958    2.9080   -1.5775 C.ar      1 <1>        -0.0586
      6 C6          0.7139    2.2531   -2.6453 C.ar      1 <1>        -0.0902
      7 N1          1.9279    2.9600    0.7544 N.pl3     1 <1>        -0.3062
      8 C7          1.3489    3.1243    1.9832 C.2       1 <1>        -0.0165
      9 C8          2.1985    3.8089    2.7931 C.2       1 <1>        -0.0180
     10 C9          3.3993    4.0776    1.9994 C.2       1 <1>         0.0567
     11 C10         3.1737    3.5255    0.7373 C.2       1 <1>         0.0436
     12 N2          4.1295    3.6289   -0.2038 N.2       1 <1>        -0.3378
     13 C11         5.2617    4.2265    0.0148 C.2       1 <1>         0.0259
     14 N3          5.5820    4.7973    1.2069 N.pl3     1 <1>        -0.4556
     15 C12         4.6746    4.7523    2.2510 C.2       1 <1>         0.0017
     16 N4          4.9453    5.2912    3.4166 N.2       1 <1>        -0.4330
     17 N5          6.7912    5.4105    1.3729 N.3       1 <1>         0.3831
     18 C13         1.9595    4.2005    4.2031 C.ar      1 <1>        -0.0551
     19 C14         0.7798    4.8534    4.5574 C.ar      1 <1>        -0.0758
     20 C15         0.5645    5.2200    5.8700 C.ar      1 <1>        -0.0734
     21 C16         1.5129    4.9312    6.8364 C.ar      1 <1>        -0.0201
     22 C17         2.6861    4.2831    6.4899 C.ar      1 <1>        -0.0664
     23 C18         2.9136    3.9169    5.1791 C.ar      1 <1>        -0.0667
     24 Cl1         1.2329    5.3893    8.4873 Cl        1 <1>        -0.1513
     25 H1         -0.2998    0.4907   -3.3051 H         1 <1>         0.1228
     26 H2         -0.2466   -0.5849   -1.0921 H         1 <1>         0.1270
     27 H3          0.7977    0.5687    0.8146 H         1 <1>         0.1327
     28 H4          1.7257    3.8893   -1.7143 H         1 <1>         0.1358
     29 H5          0.6890    2.7228   -3.6175 H         1 <1>         0.1273
     30 H6          0.3691    2.7677    2.2647 H         1 <1>         0.2071
     31 H7          5.9829    4.2721   -0.7877 H         1 <1>         0.3043
     32 H8          5.7968    5.7331    3.5607 H         1 <1>         0.2510
     33 H9          7.4848    4.7580    1.7063 H         1 <1>         0.0189
     34 H10         7.0926    5.8530    0.5176 H         1 <1>         0.0314
     35 H11         0.0377    5.0758    3.8049 H         1 <1>         0.1309
     36 H12        -0.3472    5.7297    6.1448 H         1 <1>         0.1283
     37 H13         3.4248    4.0641    7.2467 H         1 <1>         0.1300
     38 H14         3.8293    3.4116    4.9097 H         1 <1>         0.1417
@<TRIPOS>BOND
     1    1    6 ar
     2    1    2 ar
     3    1   25 1
     4    2    3 ar
     5    2   26 1
     6    3    4 ar
     7    3   27 1
     8    4    5 ar
     9    4    7 1
    10    5    6 ar
    11    5   28 1
    12    6   29 1
    13    7   11 1
    14    7    8 1
    15    8    9 2
    16    8   30 1
    17    9   10 1
    18    9   18 1
    19   10   15 1
    20   10   11 2
    21   11   12 1
    22   12   13 2
    23   13   14 1
    24   13   31 1
    25   14   15 1
    26   14   17 1
    27   15   16 2
    28   16   32 1
    29   17   33 1
    30   17   34 1
    31   18   23 ar
    32   18   19 ar
    33   19   20 ar
    34   19   35 1
    35   20   21 ar
    36   20   36 1
    37   21   22 ar
    38   21   24 1
    39   22   23 ar
    40   22   37 1
    41   23   38 1
@<TRIPOS>Similarity
1.1747
@<TRIPOS>ShapeSim
0.6571
@<TRIPOS>PharmSim
0.5176
# END
# Name:		ZINC03852044
# Created and modified by SHAFTS on Mon Jun 23 14:53:19 2014

# 

@<TRIPOS>MOLECULE
ZINC03852044
   38    41     0
SMALL
USER_CHARGE


@<TRIPOS>ATOM
      1 C1          0.1582    0.9991   -2.4695 C.ar      1 <1>        -0.0994
      2 C2          0.1882    0.3945   -1.2262 C.ar      1 <1>        -0.0928
      3 C3          0.7741    1.0417   -0.1559 C.ar      1 <1>        -0.0619
      4 C4          1.3329    2.3009   -0.3292 C.ar      1 <1>        -0.0216
      5 C5          1.2958    2.9080   -1.5775 C.ar      1 <1>        -0.0586
      6 C6          0.7139    2.2531   -2.6453 C.ar      1 <1>        -0.0902
      7 N1          1.9279    2.9600    0.7544 N.pl3     1 <1>        -0.3062
      8 C7          1.3489    3.1243    1.9832 C.2       1 <1>        -0.0165
      9 C8          2.1985    3.8089    2.7931 C.2       1 <1>        -0.0180
     10 C9          3.3993    4.0776    1.9994 C.2       1 <1>         0.0567
     11 C10         3.1737    3.5255    0.7373 C.2       1 <1>         0.0436
     12 N2          4.1295    3.6289   -0.2038 N.2       1 <1>        -0.3378
     13 C11         5.2617    4.2265    0.0148 C.2       1 <1>         0.0259
     14 N3          5.5820    4.7973    1.2069 N.pl3     1 <1>        -0.4556
     15 C12         4.6746    4.7523    2.2510 C.2       1 <1>         0.0017
     16 N4          4.9453    5.2912    3.4166 N.2       1 <1>        -0.4330
     17 N5          6.7912    5.4105    1.3729 N.3       1 <1>         0.3831
     18 C13         1.9595    4.2005    4.2031 C.ar      1 <1>        -0.0551
     19 C14         0.7798    4.8534    4.5574 C.ar      1 <1>        -0.0758
     20 C15         0.5645    5.2200    5.8700 C.ar      1 <1>        -0.0734
     21 C16         1.5129    4.9312    6.8364 C.ar      1 <1>        -0.0201
     22 C17         2.6861    4.2831    6.4899 C.ar      1 <1>        -0.0664
     23 C18         2.9136    3.9169    5.1791 C.ar      1 <1>        -0.0667
     24 Cl1         1.2329    5.3893    8.4873 Cl        1 <1>        -0.1513
     25 H1         -0.2998    0.4907   -3.3051 H         1 <1>         0.1228
     26 H2         -0.2466   -0.5849   -1.0921 H         1 <1>         0.1270
     27 H3          0.7977    0.5687    0.8146 H         1 <1>         0.1327
     28 H4          1.7257    3.8893   -1.7143 H         1 <1>         0.1358
     29 H5          0.6890    2.7228   -3.6175 H         1 <1>         0.1273
     30 H6          0.3691    2.7677    2.2647 H         1 <1>         0.2071
     31 H7          5.9829    4.2721   -0.7877 H         1 <1>         0.3043
     32 H8          5.7968    5.7331    3.5607 H         1 <1>         0.2510
     33 H9          7.4848    4.7580    1.7063 H         1 <1>         0.0189
     34 H10         7.0926    5.8530    0.5176 H         1 <1>         0.0314
     35 H11         0.0377    5.0758    3.8049 H         1 <1>         0.1309
     36 H12        -0.3472    5.7297    6.1448 H         1 <1>         0.1283
     37 H13         3.4248    4.0641    7.2467 H         1 <1>         0.1300
     38 H14         3.8293    3.4116    4.9097 H         1 <1>         0.1417
@<TRIPOS>BOND
     1    1    6 ar
     2    1    2 ar
     3    1   25 1
     4    2    3 ar
     5    2   26 1
     6    3    4 ar
     7    3   27 1
     8    4    5 ar
     9    4    7 1
    10    5    6 ar
    11    5   28 1
    12    6   29 1
    13    7   11 1
    14    7    8 1
    15    8    9 2
    16    8   30 1
    17    9   10 1
    18    9   18 1
    19   10   15 1
    20   10   11 2
    21   11   12 1
    22   12   13 2
    23   13   14 1
    24   13   31 1
    25   14   15 1
    26   14   17 1
    27   15   16 2
    28   16   32 1
    29   17   33 1
    30   17   34 1
    31   18   23 ar
    32   18   19 ar
    33   19   20 ar
    34   19   35 1
    35   20   21 ar
    36   20   36 1
    37   21   22 ar
    38   21   24 1
    39   22   23 ar
    40   22   37 1
    41   23   38 1
@<TRIPOS>Similarity
1.1747
@<TRIPOS>ShapeSim
0.6571
@<TRIPOS>PharmSim
0.5176
# END
# Name:		ZINC03852044
# Created and modified by SHAFTS on Mon Jun 23 14:53:19 2014

# 

@<TRIPOS>MOLECULE
ZINC03852044
   38    41     0
SMALL
USER_CHARGE


@<TRIPOS>ATOM
      1 C1          0.1582    0.9991   -2.4695 C.ar      1 <1>        -0.0994
      2 C2          0.1882    0.3945   -1.2262 C.ar      1 <1>        -0.0928
      3 C3          0.7741    1.0417   -0.1559 C.ar      1 <1>        -0.0619
      4 C4          1.3329    2.3009   -0.3292 C.ar      1 <1>        -0.0216
      5 C5          1.2958    2.9080   -1.5775 C.ar      1 <1>        -0.0586
      6 C6          0.7139    2.2531   -2.6453 C.ar      1 <1>        -0.0902
      7 N1          1.9279    2.9600    0.7544 N.pl3     1 <1>        -0.3062
      8 C7          1.3489    3.1243    1.9832 C.2       1 <1>        -0.0165
      9 C8          2.1985    3.8089    2.7931 C.2       1 <1>        -0.0180
     10 C9          3.3993    4.0776    1.9994 C.2       1 <1>         0.0567
     11 C10         3.1737    3.5255    0.7373 C.2       1 <1>         0.0436
     12 N2          4.1295    3.6289   -0.2038 N.2       1 <1>        -0.3378
     13 C11         5.2617    4.2265    0.0148 C.2       1 <1>         0.0259
     14 N3          5.5820    4.7973    1.2069 N.pl3     1 <1>        -0.4556
     15 C12         4.6746    4.7523    2.2510 C.2       1 <1>         0.0017
     16 N4          4.9453    5.2912    3.4166 N.2       1 <1>        -0.4330
     17 N5          6.7912    5.4105    1.3729 N.3       1 <1>         0.3831
     18 C13         1.9595    4.2005    4.2031 C.ar      1 <1>        -0.0551
     19 C14         0.7798    4.8534    4.5574 C.ar      1 <1>        -0.0758
     20 C15         0.5645    5.2200    5.8700 C.ar      1 <1>        -0.0734
     21 C16         1.5129    4.9312    6.8364 C.ar      1 <1>        -0.0201
     22 C17         2.6861    4.2831    6.4899 C.ar      1 <1>        -0.0664
     23 C18         2.9136    3.9169    5.1791 C.ar      1 <1>        -0.0667
     24 Cl1         1.2329    5.3893    8.4873 Cl        1 <1>        -0.1513
     25 H1         -0.2998    0.4907   -3.3051 H         1 <1>         0.1228
     26 H2         -0.2466   -0.5849   -1.0921 H         1 <1>         0.1270
     27 H3          0.7977    0.5687    0.8146 H         1 <1>         0.1327
     28 H4          1.7257    3.8893   -1.7143 H         1 <1>         0.1358
     29 H5          0.6890    2.7228   -3.6175 H         1 <1>         0.1273
     30 H6          0.3691    2.7677    2.2647 H         1 <1>         0.2071
     31 H7          5.9829    4.2721   -0.7877 H         1 <1>         0.3043
     32 H8          5.7968    5.7331    3.5607 H         1 <1>         0.2510
     33 H9          7.4848    4.7580    1.7063 H         1 <1>         0.0189
     34 H10         7.0926    5.8530    0.5176 H         1 <1>         0.0314
     35 H11         0.0377    5.0758    3.8049 H         1 <1>         0.1309
     36 H12        -0.3472    5.7297    6.1448 H         1 <1>         0.1283
     37 H13         3.4248    4.0641    7.2467 H         1 <1>         0.1300
     38 H14         3.8293    3.4116    4.9097 H         1 <1>         0.1417
@<TRIPOS>BOND
     1    1    6 ar
     2    1    2 ar
     3    1   25 1
     4    2    3 ar
     5    2   26 1
     6    3    4 ar
     7    3   27 1
     8    4    5 ar
     9    4    7 1
    10    5    6 ar
    11    5   28 1
    12    6   29 1
    13    7   11 1
    14    7    8 1
    15    8    9 2
    16    8   30 1
    17    9   10 1
    18    9   18 1
    19   10   15 1
    20   10   11 2
    21   11   12 1
    22   12   13 2
    23   13   14 1
    24   13   31 1
    25   14   15 1
    26   14   17 1
    27   15   16 2
    28   16   32 1
    29   17   33 1
    30   17   34 1
    31   18   23 ar
    32   18   19 ar
    33   19   20 ar
    34   19   35 1
    35   20   21 ar
    36   20   36 1
    37   21   22 ar
    38   21   24 1
    39   22   23 ar
    40   22   37 1
    41   23   38 1
@<TRIPOS>Similarity
1.1747
@<TRIPOS>ShapeSim
0.6571
@<TRIPOS>PharmSim
0.5176
# END
# Name:		ZINC03852044
# Created and modified by SHAFTS on Mon Jun 23 14:53:19 2014

# 

@<TRIPOS>MOLECULE
ZINC03852044
   38    41     0
SMALL
USER_CHARGE


@<TRIPOS>ATOM
      1 C1          0.1582    0.9991   -2.4695 C.ar      1 <1>        -0.0994
      2 C2          0.1882    0.3945   -1.2262 C.ar      1 <1>        -0.0928
      3 C3          0.7741    1.0417   -0.1559 C.ar      1 <1>        -0.0619
      4 C4          1.3329    2.3009   -0.3292 C.ar      1 <1>        -0.0216
      5 C5          1.2958    2.9080   -1.5775 C.ar      1 <1>        -0.0586
      6 C6          0.7139    2.2531   -2.6453 C.ar      1 <1>        -0.0902
      7 N1          1.9279    2.9600    0.7544 N.pl3     1 <1>        -0.3062
      8 C7          1.3489    3.1243    1.9832 C.2       1 <1>        -0.0165
      9 C8          2.1985    3.8089    2.7931 C.2       1 <1>        -0.0180
     10 C9          3.3993    4.0776    1.9994 C.2       1 <1>         0.0567
     11 C10         3.1737    3.5255    0.7373 C.2       1 <1>         0.0436
     12 N2          4.1295    3.6289   -0.2038 N.2       1 <1>        -0.3378
     13 C11         5.2617    4.2265    0.0148 C.2       1 <1>         0.0259
     14 N3          5.5820    4.7973    1.2069 N.pl3     1 <1>        -0.4556
     15 C12         4.6746    4.7523    2.2510 C.2       1 <1>         0.0017
     16 N4          4.9453    5.2912    3.4166 N.2       1 <1>        -0.4330
     17 N5          6.7912    5.4105    1.3729 N.3       1 <1>         0.3831
     18 C13         1.9595    4.2005    4.2031 C.ar      1 <1>        -0.0551
     19 C14         0.7798    4.8534    4.5574 C.ar      1 <1>        -0.0758
     20 C15         0.5645    5.2200    5.8700 C.ar      1 <1>        -0.0734
     21 C16         1.5129    4.9312    6.8364 C.ar      1 <1>        -0.0201
     22 C17         2.6861    4.2831    6.4899 C.ar      1 <1>        -0.0664
     23 C18         2.9136    3.9169    5.1791 C.ar      1 <1>        -0.0667
     24 Cl1         1.2329    5.3893    8.4873 Cl        1 <1>        -0.1513
     25 H1         -0.2998    0.4907   -3.3051 H         1 <1>         0.1228
     26 H2         -0.2466   -0.5849   -1.0921 H         1 <1>         0.1270
     27 H3          0.7977    0.5687    0.8146 H         1 <1>         0.1327
     28 H4          1.7257    3.8893   -1.7143 H         1 <1>         0.1358
     29 H5          0.6890    2.7228   -3.6175 H         1 <1>         0.1273
     30 H6          0.3691    2.7677    2.2647 H         1 <1>         0.2071
     31 H7          5.9829    4.2721   -0.7877 H         1 <1>         0.3043
     32 H8          5.7968    5.7331    3.5607 H         1 <1>         0.2510
     33 H9          7.4848    4.7580    1.7063 H         1 <1>         0.0189
     34 H10         7.0926    5.8530    0.5176 H         1 <1>         0.0314
     35 H11         0.0377    5.0758    3.8049 H         1 <1>         0.1309
     36 H12        -0.3472    5.7297    6.1448 H         1 <1>         0.1283
     37 H13         3.4248    4.0641    7.2467 H         1 <1>         0.1300
     38 H14         3.8293    3.4116    4.9097 H         1 <1>         0.1417
@<TRIPOS>BOND
     1    1    6 ar
     2    1    2 ar
     3    1   25 1
     4    2    3 ar
     5    2   26 1
     6    3    4 ar
     7    3   27 1
     8    4    5 ar
     9    4    7 1
    10    5    6 ar
    11    5   28 1
    12    6   29 1
    13    7   11 1
    14    7    8 1
    15    8    9 2
    16    8   30 1
    17    9   10 1
    18    9   18 1
    19   10   15 1
    20   10   11 2
    21   11   12 1
    22   12   13 2
    23   13   14 1
    24   13   31 1
    25   14   15 1
    26   14   17 1
    27   15   16 2
    28   16   32 1
    29   17   33 1
    30   17   34 1
    31   18   23 ar
    32   18   19 ar
    33   19   20 ar
    34   19   35 1
    35   20   21 ar
    36   20   36 1
    37   21   22 ar
    38   21   24 1
    39   22   23 ar
    40   22   37 1
    41   23   38 1
@<TRIPOS>Similarity
1.1747
@<TRIPOS>ShapeSim
0.6571
@<TRIPOS>PharmSim
0.5176
# END
# Name:		ZINC03852044
# Created and modified by SHAFTS on Mon Jun 23 14:53:19 2014

# 

@<TRIPOS>MOLECULE
ZINC03852044
   38    41     0
SMALL
USER_CHARGE


@<TRIPOS>ATOM
      1 C1          0.1582    0.9991   -2.4695 C.ar      1 <1>        -0.0994
      2 C2          0.1882    0.3945   -1.2262 C.ar      1 <1>        -0.0928
      3 C3          0.7741    1.0417   -0.1559 C.ar      1 <1>        -0.0619
      4 C4          1.3329    2.3009   -0.3292 C.ar      1 <1>        -0.0216
      5 C5          1.2958    2.9080   -1.5775 C.ar      1 <1>        -0.0586
      6 C6          0.7139    2.2531   -2.6453 C.ar      1 <1>        -0.0902
      7 N1          1.9279    2.9600    0.7544 N.pl3     1 <1>        -0.3062
      8 C7          1.3489    3.1243    1.9832 C.2       1 <1>        -0.0165
      9 C8          2.1985    3.8089    2.7931 C.2       1 <1>        -0.0180
     10 C9          3.3993    4.0776    1.9994 C.2       1 <1>         0.0567
     11 C10         3.1737    3.5255    0.7373 C.2       1 <1>         0.0436
     12 N2          4.1295    3.6289   -0.2038 N.2       1 <1>        -0.3378
     13 C11         5.2617    4.2265    0.0148 C.2       1 <1>         0.0259
     14 N3          5.5820    4.7973    1.2069 N.pl3     1 <1>        -0.4556
     15 C12         4.6746    4.7523    2.2510 C.2       1 <1>         0.0017
     16 N4          4.9453    5.2912    3.4166 N.2       1 <1>        -0.4330
     17 N5          6.7912    5.4105    1.3729 N.3       1 <1>         0.3831
     18 C13         1.9595    4.2005    4.2031 C.ar      1 <1>        -0.0551
     19 C14         0.7798    4.8534    4.5574 C.ar      1 <1>        -0.0758
     20 C15         0.5645    5.2200    5.8700 C.ar      1 <1>        -0.0734
     21 C16         1.5129    4.9312    6.8364 C.ar      1 <1>        -0.0201
     22 C17         2.6861    4.2831    6.4899 C.ar      1 <1>        -0.0664
     23 C18         2.9136    3.9169    5.1791 C.ar      1 <1>        -0.0667
     24 Cl1         1.2329    5.3893    8.4873 Cl        1 <1>        -0.1513
     25 H1         -0.2998    0.4907   -3.3051 H         1 <1>         0.1228
     26 H2         -0.2466   -0.5849   -1.0921 H         1 <1>         0.1270
     27 H3          0.7977    0.5687    0.8146 H         1 <1>         0.1327
     28 H4          1.7257    3.8893   -1.7143 H         1 <1>         0.1358
     29 H5          0.6890    2.7228   -3.6175 H         1 <1>         0.1273
     30 H6          0.3691    2.7677    2.2647 H         1 <1>         0.2071
     31 H7          5.9829    4.2721   -0.7877 H         1 <1>         0.3043
     32 H8          5.7968    5.7331    3.5607 H         1 <1>         0.2510
     33 H9          7.4848    4.7580    1.7063 H         1 <1>         0.0189
     34 H10         7.0926    5.8530    0.5176 H         1 <1>         0.0314
     35 H11         0.0377    5.0758    3.8049 H         1 <1>         0.1309
     36 H12        -0.3472    5.7297    6.1448 H         1 <1>         0.1283
     37 H13         3.4248    4.0641    7.2467 H         1 <1>         0.1300
     38 H14         3.8293    3.4116    4.9097 H         1 <1>         0.1417
@<TRIPOS>BOND
     1    1    6 ar
     2    1    2 ar
     3    1   25 1
     4    2    3 ar
     5    2   26 1
     6    3    4 ar
     7    3   27 1
     8    4    5 ar
     9    4    7 1
    10    5    6 ar
    11    5   28 1
    12    6   29 1
    13    7   11 1
    14    7    8 1
    15    8    9 2
    16    8   30 1
    17    9   10 1
    18    9   18 1
    19   10   15 1
    20   10   11 2
    21   11   12 1
    22   12   13 2
    23   13   14 1
    24   13   31 1
    25   14   15 1
    26   14   17 1
    27   15   16 2
    28   16   32 1
    29   17   33 1
    30   17   34 1
    31   18   23 ar
    32   18   19 ar
    33   19   20 ar
    34   19   35 1
    35   20   21 ar
    36   20   36 1
    37   21   22 ar
    38   21   24 1
    39   22   23 ar
    40   22   37 1
    41   23   38 1
@<TRIPOS>Similarity
1.1747
@<TRIPOS>ShapeSim
0.6571
@<TRIPOS>PharmSim
0.5176
# END
# Name:		ZINC03852044
# Created and modified by SHAFTS on Mon Jun 23 14:53:19 2014

# 

@<TRIPOS>MOLECULE
ZINC03852044
   38    41     0
SMALL
USER_CHARGE


@<TRIPOS>ATOM
      1 C1          0.1582    0.9991   -2.4695 C.ar      1 <1>        -0.0994
      2 C2          0.1882    0.3945   -1.2262 C.ar      1 <1>        -0.0928
      3 C3          0.7741    1.0417   -0.1559 C.ar      1 <1>        -0.0619
      4 C4          1.3329    2.3009   -0.3292 C.ar      1 <1>        -0.0216
      5 C5          1.2958    2.9080   -1.5775 C.ar      1 <1>        -0.0586
      6 C6          0.7139    2.2531   -2.6453 C.ar      1 <1>        -0.0902
      7 N1          1.9279    2.9600    0.7544 N.pl3     1 <1>        -0.3062
      8 C7          1.3489    3.1243    1.9832 C.2       1 <1>        -0.0165
      9 C8          2.1985    3.8089    2.7931 C.2       1 <1>        -0.0180
     10 C9          3.3993    4.0776    1.9994 C.2       1 <1>         0.0567
     11 C10         3.1737    3.5255    0.7373 C.2       1 <1>         0.0436
     12 N2          4.1295    3.6289   -0.2038 N.2       1 <1>        -0.3378
     13 C11         5.2617    4.2265    0.0148 C.2       1 <1>         0.0259
     14 N3          5.5820    4.7973    1.2069 N.pl3     1 <1>        -0.4556
     15 C12         4.6746    4.7523    2.2510 C.2       1 <1>         0.0017
     16 N4          4.9453    5.2912    3.4166 N.2       1 <1>        -0.4330
     17 N5          6.7912    5.4105    1.3729 N.3       1 <1>         0.3831
     18 C13         1.9595    4.2005    4.2031 C.ar      1 <1>        -0.0551
     19 C14         0.7798    4.8534    4.5574 C.ar      1 <1>        -0.0758
     20 C15         0.5645    5.2200    5.8700 C.ar      1 <1>        -0.0734
     21 C16         1.5129    4.9312    6.8364 C.ar      1 <1>        -0.0201
     22 C17         2.6861    4.2831    6.4899 C.ar      1 <1>        -0.0664
     23 C18         2.9136    3.9169    5.1791 C.ar      1 <1>        -0.0667
     24 Cl1         1.2329    5.3893    8.4873 Cl        1 <1>        -0.1513
     25 H1         -0.2998    0.4907   -3.3051 H         1 <1>         0.1228
     26 H2         -0.2466   -0.5849   -1.0921 H         1 <1>         0.1270
     27 H3          0.7977    0.5687    0.8146 H         1 <1>         0.1327
     28 H4          1.7257    3.8893   -1.7143 H         1 <1>         0.1358
     29 H5          0.6890    2.7228   -3.6175 H         1 <1>         0.1273
     30 H6          0.3691    2.7677    2.2647 H         1 <1>         0.2071
     31 H7          5.9829    4.2721   -0.7877 H         1 <1>         0.3043
     32 H8          5.7968    5.7331    3.5607 H         1 <1>         0.2510
     33 H9          7.4848    4.7580    1.7063 H         1 <1>         0.0189
     34 H10         7.0926    5.8530    0.5176 H         1 <1>         0.0314
     35 H11         0.0377    5.0758    3.8049 H         1 <1>         0.1309
     36 H12        -0.3472    5.7297    6.1448 H         1 <1>         0.1283
     37 H13         3.4248    4.0641    7.2467 H         1 <1>         0.1300
     38 H14         3.8293    3.4116    4.9097 H         1 <1>         0.1417
@<TRIPOS>BOND
     1    1    6 ar
     2    1    2 ar
     3    1   25 1
     4    2    3 ar
     5    2   26 1
     6    3    4 ar
     7    3   27 1
     8    4    5 ar
     9    4    7 1
    10    5    6 ar
    11    5   28 1
    12    6   29 1
    13    7   11 1
    14    7    8 1
    15    8    9 2
    16    8   30 1
    17    9   10 1
    18    9   18 1
    19   10   15 1
    20   10   11 2
    21   11   12 1
    22   12   13 2
    23   13   14 1
    24   13   31 1
    25   14   15 1
    26   14   17 1
    27   15   16 2
    28   16   32 1
    29   17   33 1
    30   17   34 1
    31   18   23 ar
    32   18   19 ar
    33   19   20 ar
    34   19   35 1
    35   20   21 ar
    36   20   36 1
    37   21   22 ar
    38   21   24 1
    39   22   23 ar
    40   22   37 1
    41   23   38 1
@<TRIPOS>Similarity
1.1747
@<TRIPOS>ShapeSim
0.6571
@<TRIPOS>PharmSim
0.5176
# END
# Name:		ZINC03852044
# Created and modified by SHAFTS on Mon Jun 23 14:53:19 2014

# 

@<TRIPOS>MOLECULE
ZINC03852044
   38    41     0
SMALL
USER_CHARGE


@<TRIPOS>ATOM
      1 C1          0.1582    0.9991   -2.4695 C.ar      1 <1>        -0.0994
      2 C2          0.1882    0.3945   -1.2262 C.ar      1 <1>        -0.0928
      3 C3          0.7741    1.0417   -0.1559 C.ar      1 <1>        -0.0619
      4 C4          1.3329    2.3009   -0.3292 C.ar      1 <1>        -0.0216
      5 C5          1.2958    2.9080   -1.5775 C.ar      1 <1>        -0.0586
      6 C6          0.7139    2.2531   -2.6453 C.ar      1 <1>        -0.0902
      7 N1          1.9279    2.9600    0.7544 N.pl3     1 <1>        -0.3062
      8 C7          1.3489    3.1243    1.9832 C.2       1 <1>        -0.0165
      9 C8          2.1985    3.8089    2.7931 C.2       1 <1>        -0.0180
     10 C9          3.3993    4.0776    1.9994 C.2       1 <1>         0.0567
     11 C10         3.1737    3.5255    0.7373 C.2       1 <1>         0.0436
     12 N2          4.1295    3.6289   -0.2038 N.2       1 <1>        -0.3378
     13 C11         5.2617    4.2265    0.0148 C.2       1 <1>         0.0259
     14 N3          5.5820    4.7973    1.2069 N.pl3     1 <1>        -0.4556
     15 C12         4.6746    4.7523    2.2510 C.2       1 <1>         0.0017
     16 N4          4.9453    5.2912    3.4166 N.2       1 <1>        -0.4330
     17 N5          6.7912    5.4105    1.3729 N.3       1 <1>         0.3831
     18 C13         1.9595    4.2005    4.2031 C.ar      1 <1>        -0.0551
     19 C14         0.7798    4.8534    4.5574 C.ar      1 <1>        -0.0758
     20 C15         0.5645    5.2200    5.8700 C.ar      1 <1>        -0.0734
     21 C16         1.5129    4.9312    6.8364 C.ar      1 <1>        -0.0201
     22 C17         2.6861    4.2831    6.4899 C.ar      1 <1>        -0.0664
     23 C18         2.9136    3.9169    5.1791 C.ar      1 <1>        -0.0667
     24 Cl1         1.2329    5.3893    8.4873 Cl        1 <1>        -0.1513
     25 H1         -0.2998    0.4907   -3.3051 H         1 <1>         0.1228
     26 H2         -0.2466   -0.5849   -1.0921 H         1 <1>         0.1270
     27 H3          0.7977    0.5687    0.8146 H         1 <1>         0.1327
     28 H4          1.7257    3.8893   -1.7143 H         1 <1>         0.1358
     29 H5          0.6890    2.7228   -3.6175 H         1 <1>         0.1273
     30 H6          0.3691    2.7677    2.2647 H         1 <1>         0.2071
     31 H7          5.9829    4.2721   -0.7877 H         1 <1>         0.3043
     32 H8          5.7968    5.7331    3.5607 H         1 <1>         0.2510
     33 H9          7.4848    4.7580    1.7063 H         1 <1>         0.0189
     34 H10         7.0926    5.8530    0.5176 H         1 <1>         0.0314
     35 H11         0.0377    5.0758    3.8049 H         1 <1>         0.1309
     36 H12        -0.3472    5.7297    6.1448 H         1 <1>         0.1283
     37 H13         3.4248    4.0641    7.2467 H         1 <1>         0.1300
     38 H14         3.8293    3.4116    4.9097 H         1 <1>         0.1417
@<TRIPOS>BOND
     1    1    6 ar
     2    1    2 ar
     3    1   25 1
     4    2    3 ar
     5    2   26 1
     6    3    4 ar
     7    3   27 1
     8    4    5 ar
     9    4    7 1
    10    5    6 ar
    11    5   28 1
    12    6   29 1
    13    7   11 1
    14    7    8 1
    15    8    9 2
    16    8   30 1
    17    9   10 1
    18    9   18 1
    19   10   15 1
    20   10   11 2
    21   11   12 1
    22   12   13 2
    23   13   14 1
    24   13   31 1
    25   14   15 1
    26   14   17 1
    27   15   16 2
    28   16   32 1
    29   17   33 1
    30   17   34 1
    31   18   23 ar
    32   18   19 ar
    33   19   20 ar
    34   19   35 1
    35   20   21 ar
    36   20   36 1
    37   21   22 ar
    38   21   24 1
    39   22   23 ar
    40   22   37 1
    41   23   38 1
@<TRIPOS>Similarity
1.1747
@<TRIPOS>ShapeSim
0.6571
@<TRIPOS>PharmSim
0.5176
# END
# Name:		ZINC03852044
# Created and modified by SHAFTS on Mon Jun 23 14:53:19 2014

# 

@<TRIPOS>MOLECULE
ZINC03852044
   38    41     0
SMALL
USER_CHARGE


@<TRIPOS>ATOM
      1 C1          0.1582    0.9991   -2.4695 C.ar      1 <1>        -0.0994
      2 C2          0.1882    0.3945   -1.2262 C.ar      1 <1>        -0.0928
      3 C3          0.7741    1.0417   -0.1559 C.ar      1 <1>        -0.0619
      4 C4          1.3329    2.3009   -0.3292 C.ar      1 <1>        -0.0216
      5 C5          1.2958    2.9080   -1.5775 C.ar      1 <1>        -0.0586
      6 C6          0.7139    2.2531   -2.6453 C.ar      1 <1>        -0.0902
      7 N1          1.9279    2.9600    0.7544 N.pl3     1 <1>        -0.3062
      8 C7          1.3489    3.1243    1.9832 C.2       1 <1>        -0.0165
      9 C8          2.1985    3.8089    2.7931 C.2       1 <1>        -0.0180
     10 C9          3.3993    4.0776    1.9994 C.2       1 <1>         0.0567
     11 C10         3.1737    3.5255    0.7373 C.2       1 <1>         0.0436
     12 N2          4.1295    3.6289   -0.2038 N.2       1 <1>        -0.3378
     13 C11         5.2617    4.2265    0.0148 C.2       1 <1>         0.0259
     14 N3          5.5820    4.7973    1.2069 N.pl3     1 <1>        -0.4556
     15 C12         4.6746    4.7523    2.2510 C.2       1 <1>         0.0017
     16 N4          4.9453    5.2912    3.4166 N.2       1 <1>        -0.4330
     17 N5          6.7912    5.4105    1.3729 N.3       1 <1>         0.3831
     18 C13         1.9595    4.2005    4.2031 C.ar      1 <1>        -0.0551
     19 C14         0.7798    4.8534    4.5574 C.ar      1 <1>        -0.0758
     20 C15         0.5645    5.2200    5.8700 C.ar      1 <1>        -0.0734
     21 C16         1.5129    4.9312    6.8364 C.ar      1 <1>        -0.0201
     22 C17         2.6861    4.2831    6.4899 C.ar      1 <1>        -0.0664
     23 C18         2.9136    3.9169    5.1791 C.ar      1 <1>        -0.0667
     24 Cl1         1.2329    5.3893    8.4873 Cl        1 <1>        -0.1513
     25 H1         -0.2998    0.4907   -3.3051 H         1 <1>         0.1228
     26 H2         -0.2466   -0.5849   -1.0921 H         1 <1>         0.1270
     27 H3          0.7977    0.5687    0.8146 H         1 <1>         0.1327
     28 H4          1.7257    3.8893   -1.7143 H         1 <1>         0.1358
     29 H5          0.6890    2.7228   -3.6175 H         1 <1>         0.1273
     30 H6          0.3691    2.7677    2.2647 H         1 <1>         0.2071
     31 H7          5.9829    4.2721   -0.7877 H         1 <1>         0.3043
     32 H8          5.7968    5.7331    3.5607 H         1 <1>         0.2510
     33 H9          7.4848    4.7580    1.7063 H         1 <1>         0.0189
     34 H10         7.0926    5.8530    0.5176 H         1 <1>         0.0314
     35 H11         0.0377    5.0758    3.8049 H         1 <1>         0.1309
     36 H12        -0.3472    5.7297    6.1448 H         1 <1>         0.1283
     37 H13         3.4248    4.0641    7.2467 H         1 <1>         0.1300
     38 H14         3.8293    3.4116    4.9097 H         1 <1>         0.1417
@<TRIPOS>BOND
     1    1    6 ar
     2    1    2 ar
     3    1   25 1
     4    2    3 ar
     5    2   26 1
     6    3    4 ar
     7    3   27 1
     8    4    5 ar
     9    4    7 1
    10    5    6 ar
    11    5   28 1
    12    6   29 1
    13    7   11 1
    14    7    8 1
    15    8    9 2
    16    8   30 1
    17    9   10 1
    18    9   18 1
    19   10   15 1
    20   10   11 2
    21   11   12 1
    22   12   13 2
    23   13   14 1
    24   13   31 1
    25   14   15 1
    26   14   17 1
    27   15   16 2
    28   16   32 1
    29   17   33 1
    30   17   34 1
    31   18   23 ar
    32   18   19 ar
    33   19   20 ar
    34   19   35 1
    35   20   21 ar
    36   20   36 1
    37   21   22 ar
    38   21   24 1
    39   22   23 ar
    40   22   37 1
    41   23   38 1
@<TRIPOS>Similarity
1.1747
@<TRIPOS>ShapeSim
0.6571
@<TRIPOS>PharmSim
0.5176
# END
# Name:		ZINC03852044
# Created and modified by SHAFTS on Mon Jun 23 14:53:19 2014

# 

@<TRIPOS>MOLECULE
ZINC03852044
   38    41     0
SMALL
USER_CHARGE


@<TRIPOS>ATOM
      1 C1          0.1582    0.9991   -2.4695 C.ar      1 <1>        -0.0994
      2 C2          0.1882    0.3945   -1.2262 C.ar      1 <1>        -0.0928
      3 C3          0.7741    1.0417   -0.1559 C.ar      1 <1>        -0.0619
      4 C4          1.3329    2.3009   -0.3292 C.ar      1 <1>        -0.0216
      5 C5          1.2958    2.9080   -1.5775 C.ar      1 <1>        -0.0586
      6 C6          0.7139    2.2531   -2.6453 C.ar      1 <1>        -0.0902
      7 N1          1.9279    2.9600    0.7544 N.pl3     1 <1>        -0.3062
      8 C7          1.3489    3.1243    1.9832 C.2       1 <1>        -0.0165
      9 C8          2.1985    3.8089    2.7931 C.2       1 <1>        -0.0180
     10 C9          3.3993    4.0776    1.9994 C.2       1 <1>         0.0567
     11 C10         3.1737    3.5255    0.7373 C.2       1 <1>         0.0436
     12 N2          4.1295    3.6289   -0.2038 N.2       1 <1>        -0.3378
     13 C11         5.2617    4.2265    0.0148 C.2       1 <1>         0.0259
     14 N3          5.5820    4.7973    1.2069 N.pl3     1 <1>        -0.4556
     15 C12         4.6746    4.7523    2.2510 C.2       1 <1>         0.0017
     16 N4          4.9453    5.2912    3.4166 N.2       1 <1>        -0.4330
     17 N5          6.7912    5.4105    1.3729 N.3       1 <1>         0.3831
     18 C13         1.9595    4.2005    4.2031 C.ar      1 <1>        -0.0551
     19 C14         0.7798    4.8534    4.5574 C.ar      1 <1>        -0.0758
     20 C15         0.5645    5.2200    5.8700 C.ar      1 <1>        -0.0734
     21 C16         1.5129    4.9312    6.8364 C.ar      1 <1>        -0.0201
     22 C17         2.6861    4.2831    6.4899 C.ar      1 <1>        -0.0664
     23 C18         2.9136    3.9169    5.1791 C.ar      1 <1>        -0.0667
     24 Cl1         1.2329    5.3893    8.4873 Cl        1 <1>        -0.1513
     25 H1         -0.2998    0.4907   -3.3051 H         1 <1>         0.1228
     26 H2         -0.2466   -0.5849   -1.0921 H         1 <1>         0.1270
     27 H3          0.7977    0.5687    0.8146 H         1 <1>         0.1327
     28 H4          1.7257    3.8893   -1.7143 H         1 <1>         0.1358
     29 H5          0.6890    2.7228   -3.6175 H         1 <1>         0.1273
     30 H6          0.3691    2.7677    2.2647 H         1 <1>         0.2071
     31 H7          5.9829    4.2721   -0.7877 H         1 <1>         0.3043
     32 H8          5.7968    5.7331    3.5607 H         1 <1>         0.2510
     33 H9          7.4848    4.7580    1.7063 H         1 <1>         0.0189
     34 H10         7.0926    5.8530    0.5176 H         1 <1>         0.0314
     35 H11         0.0377    5.0758    3.8049 H         1 <1>         0.1309
     36 H12        -0.3472    5.7297    6.1448 H         1 <1>         0.1283
     37 H13         3.4248    4.0641    7.2467 H         1 <1>         0.1300
     38 H14         3.8293    3.4116    4.9097 H         1 <1>         0.1417
@<TRIPOS>BOND
     1    1    6 ar
     2    1    2 ar
     3    1   25 1
     4    2    3 ar
     5    2   26 1
     6    3    4 ar
     7    3   27 1
     8    4    5 ar
     9    4    7 1
    10    5    6 ar
    11    5   28 1
    12    6   29 1
    13    7   11 1
    14    7    8 1
    15    8    9 2
    16    8   30 1
    17    9   10 1
    18    9   18 1
    19   10   15 1
    20   10   11 2
    21   11   12 1
    22   12   13 2
    23   13   14 1
    24   13   31 1
    25   14   15 1
    26   14   17 1
    27   15   16 2
    28   16   32 1
    29   17   33 1
    30   17   34 1
    31   18   23 ar
    32   18   19 ar
    33   19   20 ar
    34   19   35 1
    35   20   21 ar
    36   20   36 1
    37   21   22 ar
    38   21   24 1
    39   22   23 ar
    40   22   37 1
    41   23   38 1
@<TRIPOS>Similarity
1.1747
@<TRIPOS>ShapeSim
0.6571
@<TRIPOS>PharmSim
0.5176
# END
# Name:		ZINC03852044
# Created and modified by SHAFTS on Mon Jun 23 14:53:19 2014

# 

@<TRIPOS>MOLECULE
ZINC03852044
   38    41     0
SMALL
USER_CHARGE


@<TRIPOS>ATOM
      1 C1          0.1582    0.9991   -2.4695 C.ar      1 <1>        -0.0994
      2 C2          0.1882    0.3945   -1.2262 C.ar      1 <1>        -0.0928
      3 C3          0.7741    1.0417   -0.1559 C.ar      1 <1>        -0.0619
      4 C4          1.3329    2.3009   -0.3292 C.ar      1 <1>        -0.0216
      5 C5          1.2958    2.9080   -1.5775 C.ar      1 <1>        -0.0586
      6 C6          0.7139    2.2531   -2.6453 C.ar      1 <1>        -0.0902
      7 N1          1.9279    2.9600    0.7544 N.pl3     1 <1>        -0.3062
      8 C7          1.3489    3.1243    1.9832 C.2       1 <1>        -0.0165
      9 C8          2.1985    3.8089    2.7931 C.2       1 <1>        -0.0180
     10 C9          3.3993    4.0776    1.9994 C.2       1 <1>         0.0567
     11 C10         3.1737    3.5255    0.7373 C.2       1 <1>         0.0436
     12 N2          4.1295    3.6289   -0.2038 N.2       1 <1>        -0.3378
     13 C11         5.2617    4.2265    0.0148 C.2       1 <1>         0.0259
     14 N3          5.5820    4.7973    1.2069 N.pl3     1 <1>        -0.4556
     15 C12         4.6746    4.7523    2.2510 C.2       1 <1>         0.0017
     16 N4          4.9453    5.2912    3.4166 N.2       1 <1>        -0.4330
     17 N5          6.7912    5.4105    1.3729 N.3       1 <1>         0.3831
     18 C13         1.9595    4.2005    4.2031 C.ar      1 <1>        -0.0551
     19 C14         0.7798    4.8534    4.5574 C.ar      1 <1>        -0.0758
     20 C15         0.5645    5.2200    5.8700 C.ar      1 <1>        -0.0734
     21 C16         1.5129    4.9312    6.8364 C.ar      1 <1>        -0.0201
     22 C17         2.6861    4.2831    6.4899 C.ar      1 <1>        -0.0664
     23 C18         2.9136    3.9169    5.1791 C.ar      1 <1>        -0.0667
     24 Cl1         1.2329    5.3893    8.4873 Cl        1 <1>        -0.1513
     25 H1         -0.2998    0.4907   -3.3051 H         1 <1>         0.1228
     26 H2         -0.2466   -0.5849   -1.0921 H         1 <1>         0.1270
     27 H3          0.7977    0.5687    0.8146 H         1 <1>         0.1327
     28 H4          1.7257    3.8893   -1.7143 H         1 <1>         0.1358
     29 H5          0.6890    2.7228   -3.6175 H         1 <1>         0.1273
     30 H6          0.3691    2.7677    2.2647 H         1 <1>         0.2071
     31 H7          5.9829    4.2721   -0.7877 H         1 <1>         0.3043
     32 H8          5.7968    5.7331    3.5607 H         1 <1>         0.2510
     33 H9          7.4848    4.7580    1.7063 H         1 <1>         0.0189
     34 H10         7.0926    5.8530    0.5176 H         1 <1>         0.0314
     35 H11         0.0377    5.0758    3.8049 H         1 <1>         0.1309
     36 H12        -0.3472    5.7297    6.1448 H         1 <1>         0.1283
     37 H13         3.4248    4.0641    7.2467 H         1 <1>         0.1300
     38 H14         3.8293    3.4116    4.9097 H         1 <1>         0.1417
@<TRIPOS>BOND
     1    1    6 ar
     2    1    2 ar
     3    1   25 1
     4    2    3 ar
     5    2   26 1
     6    3    4 ar
     7    3   27 1
     8    4    5 ar
     9    4    7 1
    10    5    6 ar
    11    5   28 1
    12    6   29 1
    13    7   11 1
    14    7    8 1
    15    8    9 2
    16    8   30 1
    17    9   10 1
    18    9   18 1
    19   10   15 1
    20   10   11 2
    21   11   12 1
    22   12   13 2
    23   13   14 1
    24   13   31 1
    25   14   15 1
    26   14   17 1
    27   15   16 2
    28   16   32 1
    29   17   33 1
    30   17   34 1
    31   18   23 ar
    32   18   19 ar
    33   19   20 ar
    34   19   35 1
    35   20   21 ar
    36   20   36 1
    37   21   22 ar
    38   21   24 1
    39   22   23 ar
    40   22   37 1
    41   23   38 1
@<TRIPOS>Similarity
1.1747
@<TRIPOS>ShapeSim
0.6571
@<TRIPOS>PharmSim
0.5176
# END
# Name:		ZINC03852044
# Created and modified by SHAFTS on Mon Jun 23 14:53:19 2014

# 

@<TRIPOS>MOLECULE
ZINC03852044
   38    41     0
SMALL
USER_CHARGE


@<TRIPOS>ATOM
      1 C1          0.1582    0.9991   -2.4695 C.ar      1 <1>        -0.0994
      2 C2          0.1882    0.3945   -1.2262 C.ar      1 <1>        -0.0928
      3 C3          0.7741    1.0417   -0.1559 C.ar      1 <1>        -0.0619
      4 C4          1.3329    2.3009   -0.3292 C.ar      1 <1>        -0.0216
      5 C5          1.2958    2.9080   -1.5775 C.ar      1 <1>        -0.0586
      6 C6          0.7139    2.2531   -2.6453 C.ar      1 <1>        -0.0902
      7 N1          1.9279    2.9600    0.7544 N.pl3     1 <1>        -0.3062
      8 C7          1.3489    3.1243    1.9832 C.2       1 <1>        -0.0165
      9 C8          2.1985    3.8089    2.7931 C.2       1 <1>        -0.0180
     10 C9          3.3993    4.0776    1.9994 C.2       1 <1>         0.0567
     11 C10         3.1737    3.5255    0.7373 C.2       1 <1>         0.0436
     12 N2          4.1295    3.6289   -0.2038 N.2       1 <1>        -0.3378
     13 C11         5.2617    4.2265    0.0148 C.2       1 <1>         0.0259
     14 N3          5.5820    4.7973    1.2069 N.pl3     1 <1>        -0.4556
     15 C12         4.6746    4.7523    2.2510 C.2       1 <1>         0.0017
     16 N4          4.9453    5.2912    3.4166 N.2       1 <1>        -0.4330
     17 N5          6.7912    5.4105    1.3729 N.3       1 <1>         0.3831
     18 C13         1.9595    4.2005    4.2031 C.ar      1 <1>        -0.0551
     19 C14         0.7798    4.8534    4.5574 C.ar      1 <1>        -0.0758
     20 C15         0.5645    5.2200    5.8700 C.ar      1 <1>        -0.0734
     21 C16         1.5129    4.9312    6.8364 C.ar      1 <1>        -0.0201
     22 C17         2.6861    4.2831    6.4899 C.ar      1 <1>        -0.0664
     23 C18         2.9136    3.9169    5.1791 C.ar      1 <1>        -0.0667
     24 Cl1         1.2329    5.3893    8.4873 Cl        1 <1>        -0.1513
     25 H1         -0.2998    0.4907   -3.3051 H         1 <1>         0.1228
     26 H2         -0.2466   -0.5849   -1.0921 H         1 <1>         0.1270
     27 H3          0.7977    0.5687    0.8146 H         1 <1>         0.1327
     28 H4          1.7257    3.8893   -1.7143 H         1 <1>         0.1358
     29 H5          0.6890    2.7228   -3.6175 H         1 <1>         0.1273
     30 H6          0.3691    2.7677    2.2647 H         1 <1>         0.2071
     31 H7          5.9829    4.2721   -0.7877 H         1 <1>         0.3043
     32 H8          5.7968    5.7331    3.5607 H         1 <1>         0.2510
     33 H9          7.4848    4.7580    1.7063 H         1 <1>         0.0189
     34 H10         7.0926    5.8530    0.5176 H         1 <1>         0.0314
     35 H11         0.0377    5.0758    3.8049 H         1 <1>         0.1309
     36 H12        -0.3472    5.7297    6.1448 H         1 <1>         0.1283
     37 H13         3.4248    4.0641    7.2467 H         1 <1>         0.1300
     38 H14         3.8293    3.4116    4.9097 H         1 <1>         0.1417
@<TRIPOS>BOND
     1    1    6 ar
     2    1    2 ar
     3    1   25 1
     4    2    3 ar
     5    2   26 1
     6    3    4 ar
     7    3   27 1
     8    4    5 ar
     9    4    7 1
    10    5    6 ar
    11    5   28 1
    12    6   29 1
    13    7   11 1
    14    7    8 1
    15    8    9 2
    16    8   30 1
    17    9   10 1
    18    9   18 1
    19   10   15 1
    20   10   11 2
    21   11   12 1
    22   12   13 2
    23   13   14 1
    24   13   31 1
    25   14   15 1
    26   14   17 1
    27   15   16 2
    28   16   32 1
    29   17   33 1
    30   17   34 1
    31   18   23 ar
    32   18   19 ar
    33   19   20 ar
    34   19   35 1
    35   20   21 ar
    36   20   36 1
    37   21   22 ar
    38   21   24 1
    39   22   23 ar
    40   22   37 1
    41   23   38 1
@<TRIPOS>Similarity
1.1747
@<TRIPOS>ShapeSim
0.6571
@<TRIPOS>PharmSim
0.5176
# END
# Name:		ZINC03852044
# Created and modified by SHAFTS on Mon Jun 23 14:53:19 2014

# 

@<TRIPOS>MOLECULE
ZINC03852044
   38    41     0
SMALL
USER_CHARGE


@<TRIPOS>ATOM
      1 C1          0.1582    0.9991   -2.4695 C.ar      1 <1>        -0.0994
      2 C2          0.1882    0.3945   -1.2262 C.ar      1 <1>        -0.0928
      3 C3          0.7741    1.0417   -0.1559 C.ar      1 <1>        -0.0619
      4 C4          1.3329    2.3009   -0.3292 C.ar      1 <1>        -0.0216
      5 C5          1.2958    2.9080   -1.5775 C.ar      1 <1>        -0.0586
      6 C6          0.7139    2.2531   -2.6453 C.ar      1 <1>        -0.0902
      7 N1          1.9279    2.9600    0.7544 N.pl3     1 <1>        -0.3062
      8 C7          1.3489    3.1243    1.9832 C.2       1 <1>        -0.0165
      9 C8          2.1985    3.8089    2.7931 C.2       1 <1>        -0.0180
     10 C9          3.3993    4.0776    1.9994 C.2       1 <1>         0.0567
     11 C10         3.1737    3.5255    0.7373 C.2       1 <1>         0.0436
     12 N2          4.1295    3.6289   -0.2038 N.2       1 <1>        -0.3378
     13 C11         5.2617    4.2265    0.0148 C.2       1 <1>         0.0259
     14 N3          5.5820    4.7973    1.2069 N.pl3     1 <1>        -0.4556
     15 C12         4.6746    4.7523    2.2510 C.2       1 <1>         0.0017
     16 N4          4.9453    5.2912    3.4166 N.2       1 <1>        -0.4330
     17 N5          6.7912    5.4105    1.3729 N.3       1 <1>         0.3831
     18 C13         1.9595    4.2005    4.2031 C.ar      1 <1>        -0.0551
     19 C14         0.7798    4.8534    4.5574 C.ar      1 <1>        -0.0758
     20 C15         0.5645    5.2200    5.8700 C.ar      1 <1>        -0.0734
     21 C16         1.5129    4.9312    6.8364 C.ar      1 <1>        -0.0201
     22 C17         2.6861    4.2831    6.4899 C.ar      1 <1>        -0.0664
     23 C18         2.9136    3.9169    5.1791 C.ar      1 <1>        -0.0667
     24 Cl1         1.2329    5.3893    8.4873 Cl        1 <1>        -0.1513
     25 H1         -0.2998    0.4907   -3.3051 H         1 <1>         0.1228
     26 H2         -0.2466   -0.5849   -1.0921 H         1 <1>         0.1270
     27 H3          0.7977    0.5687    0.8146 H         1 <1>         0.1327
     28 H4          1.7257    3.8893   -1.7143 H         1 <1>         0.1358
     29 H5          0.6890    2.7228   -3.6175 H         1 <1>         0.1273
     30 H6          0.3691    2.7677    2.2647 H         1 <1>         0.2071
     31 H7          5.9829    4.2721   -0.7877 H         1 <1>         0.3043
     32 H8          5.7968    5.7331    3.5607 H         1 <1>         0.2510
     33 H9          7.4848    4.7580    1.7063 H         1 <1>         0.0189
     34 H10         7.0926    5.8530    0.5176 H         1 <1>         0.0314
     35 H11         0.0377    5.0758    3.8049 H         1 <1>         0.1309
     36 H12        -0.3472    5.7297    6.1448 H         1 <1>         0.1283
     37 H13         3.4248    4.0641    7.2467 H         1 <1>         0.1300
     38 H14         3.8293    3.4116    4.9097 H         1 <1>         0.1417
@<TRIPOS>BOND
     1    1    6 ar
     2    1    2 ar
     3    1   25 1
     4    2    3 ar
     5    2   26 1
     6    3    4 ar
     7    3   27 1
     8    4    5 ar
     9    4    7 1
    10    5    6 ar
    11    5   28 1
    12    6   29 1
    13    7   11 1
    14    7    8 1
    15    8    9 2
    16    8   30 1
    17    9   10 1
    18    9   18 1
    19   10   15 1
    20   10   11 2
    21   11   12 1
    22   12   13 2
    23   13   14 1
    24   13   31 1
    25   14   15 1
    26   14   17 1
    27   15   16 2
    28   16   32 1
    29   17   33 1
    30   17   34 1
    31   18   23 ar
    32   18   19 ar
    33   19   20 ar
    34   19   35 1
    35   20   21 ar
    36   20   36 1
    37   21   22 ar
    38   21   24 1
    39   22   23 ar
    40   22   37 1
    41   23   38 1
@<TRIPOS>Similarity
1.1747
@<TRIPOS>ShapeSim
0.6571
@<TRIPOS>PharmSim
0.5176
# END
# Name:		ZINC03852044
# Created and modified by SHAFTS on Mon Jun 23 14:53:19 2014

# 

@<TRIPOS>MOLECULE
ZINC03852044
   38    41     0
SMALL
USER_CHARGE


@<TRIPOS>ATOM
      1 C1          0.1582    0.9991   -2.4695 C.ar      1 <1>        -0.0994
      2 C2          0.1882    0.3945   -1.2262 C.ar      1 <1>        -0.0928
      3 C3          0.7741    1.0417   -0.1559 C.ar      1 <1>        -0.0619
      4 C4          1.3329    2.3009   -0.3292 C.ar      1 <1>        -0.0216
      5 C5          1.2958    2.9080   -1.5775 C.ar      1 <1>        -0.0586
      6 C6          0.7139    2.2531   -2.6453 C.ar      1 <1>        -0.0902
      7 N1          1.9279    2.9600    0.7544 N.pl3     1 <1>        -0.3062
      8 C7          1.3489    3.1243    1.9832 C.2       1 <1>        -0.0165
      9 C8          2.1985    3.8089    2.7931 C.2       1 <1>        -0.0180
     10 C9          3.3993    4.0776    1.9994 C.2       1 <1>         0.0567
     11 C10         3.1737    3.5255    0.7373 C.2       1 <1>         0.0436
     12 N2          4.1295    3.6289   -0.2038 N.2       1 <1>        -0.3378
     13 C11         5.2617    4.2265    0.0148 C.2       1 <1>         0.0259
     14 N3          5.5820    4.7973    1.2069 N.pl3     1 <1>        -0.4556
     15 C12         4.6746    4.7523    2.2510 C.2       1 <1>         0.0017
     16 N4          4.9453    5.2912    3.4166 N.2       1 <1>        -0.4330
     17 N5          6.7912    5.4105    1.3729 N.3       1 <1>         0.3831
     18 C13         1.9595    4.2005    4.2031 C.ar      1 <1>        -0.0551
     19 C14         0.7798    4.8534    4.5574 C.ar      1 <1>        -0.0758
     20 C15         0.5645    5.2200    5.8700 C.ar      1 <1>        -0.0734
     21 C16         1.5129    4.9312    6.8364 C.ar      1 <1>        -0.0201
     22 C17         2.6861    4.2831    6.4899 C.ar      1 <1>        -0.0664
     23 C18         2.9136    3.9169    5.1791 C.ar      1 <1>        -0.0667
     24 Cl1         1.2329    5.3893    8.4873 Cl        1 <1>        -0.1513
     25 H1         -0.2998    0.4907   -3.3051 H         1 <1>         0.1228
     26 H2         -0.2466   -0.5849   -1.0921 H         1 <1>         0.1270
     27 H3          0.7977    0.5687    0.8146 H         1 <1>         0.1327
     28 H4          1.7257    3.8893   -1.7143 H         1 <1>         0.1358
     29 H5          0.6890    2.7228   -3.6175 H         1 <1>         0.1273
     30 H6          0.3691    2.7677    2.2647 H         1 <1>         0.2071
     31 H7          5.9829    4.2721   -0.7877 H         1 <1>         0.3043
     32 H8          5.7968    5.7331    3.5607 H         1 <1>         0.2510
     33 H9          7.4848    4.7580    1.7063 H         1 <1>         0.0189
     34 H10         7.0926    5.8530    0.5176 H         1 <1>         0.0314
     35 H11         0.0377    5.0758    3.8049 H         1 <1>         0.1309
     36 H12        -0.3472    5.7297    6.1448 H         1 <1>         0.1283
     37 H13         3.4248    4.0641    7.2467 H         1 <1>         0.1300
     38 H14         3.8293    3.4116    4.9097 H         1 <1>         0.1417
@<TRIPOS>BOND
     1    1    6 ar
     2    1    2 ar
     3    1   25 1
     4    2    3 ar
     5    2   26 1
     6    3    4 ar
     7    3   27 1
     8    4    5 ar
     9    4    7 1
    10    5    6 ar
    11    5   28 1
    12    6   29 1
    13    7   11 1
    14    7    8 1
    15    8    9 2
    16    8   30 1
    17    9   10 1
    18    9   18 1
    19   10   15 1
    20   10   11 2
    21   11   12 1
    22   12   13 2
    23   13   14 1
    24   13   31 1
    25   14   15 1
    26   14   17 1
    27   15   16 2
    28   16   32 1
    29   17   33 1
    30   17   34 1
    31   18   23 ar
    32   18   19 ar
    33   19   20 ar
    34   19   35 1
    35   20   21 ar
    36   20   36 1
    37   21   22 ar
    38   21   24 1
    39   22   23 ar
    40   22   37 1
    41   23   38 1
@<TRIPOS>Similarity
1.1747
@<TRIPOS>ShapeSim
0.6571
@<TRIPOS>PharmSim
0.5176
# END
# Name:		ZINC03852044
# Created and modified by SHAFTS on Mon Jun 23 14:53:19 2014

# 

@<TRIPOS>MOLECULE
ZINC03852044
   38    41     0
SMALL
USER_CHARGE


@<TRIPOS>ATOM
      1 C1          0.1582    0.9991   -2.4695 C.ar      1 <1>        -0.0994
      2 C2          0.1882    0.3945   -1.2262 C.ar      1 <1>        -0.0928
      3 C3          0.7741    1.0417   -0.1559 C.ar      1 <1>        -0.0619
      4 C4          1.3329    2.3009   -0.3292 C.ar      1 <1>        -0.0216
      5 C5          1.2958    2.9080   -1.5775 C.ar      1 <1>        -0.0586
      6 C6          0.7139    2.2531   -2.6453 C.ar      1 <1>        -0.0902
      7 N1          1.9279    2.9600    0.7544 N.pl3     1 <1>        -0.3062
      8 C7          1.3489    3.1243    1.9832 C.2       1 <1>        -0.0165
      9 C8          2.1985    3.8089    2.7931 C.2       1 <1>        -0.0180
     10 C9          3.3993    4.0776    1.9994 C.2       1 <1>         0.0567
     11 C10         3.1737    3.5255    0.7373 C.2       1 <1>         0.0436
     12 N2          4.1295    3.6289   -0.2038 N.2       1 <1>        -0.3378
     13 C11         5.2617    4.2265    0.0148 C.2       1 <1>         0.0259
     14 N3          5.5820    4.7973    1.2069 N.pl3     1 <1>        -0.4556
     15 C12         4.6746    4.7523    2.2510 C.2       1 <1>         0.0017
     16 N4          4.9453    5.2912    3.4166 N.2       1 <1>        -0.4330
     17 N5          6.7912    5.4105    1.3729 N.3       1 <1>         0.3831
     18 C13         1.9595    4.2005    4.2031 C.ar      1 <1>        -0.0551
     19 C14         0.7798    4.8534    4.5574 C.ar      1 <1>        -0.0758
     20 C15         0.5645    5.2200    5.8700 C.ar      1 <1>        -0.0734
     21 C16         1.5129    4.9312    6.8364 C.ar      1 <1>        -0.0201
     22 C17         2.6861    4.2831    6.4899 C.ar      1 <1>        -0.0664
     23 C18         2.9136    3.9169    5.1791 C.ar      1 <1>        -0.0667
     24 Cl1         1.2329    5.3893    8.4873 Cl        1 <1>        -0.1513
     25 H1         -0.2998    0.4907   -3.3051 H         1 <1>         0.1228
     26 H2         -0.2466   -0.5849   -1.0921 H         1 <1>         0.1270
     27 H3          0.7977    0.5687    0.8146 H         1 <1>         0.1327
     28 H4          1.7257    3.8893   -1.7143 H         1 <1>         0.1358
     29 H5          0.6890    2.7228   -3.6175 H         1 <1>         0.1273
     30 H6          0.3691    2.7677    2.2647 H         1 <1>         0.2071
     31 H7          5.9829    4.2721   -0.7877 H         1 <1>         0.3043
     32 H8          5.7968    5.7331    3.5607 H         1 <1>         0.2510
     33 H9          7.4848    4.7580    1.7063 H         1 <1>         0.0189
     34 H10         7.0926    5.8530    0.5176 H         1 <1>         0.0314
     35 H11         0.0377    5.0758    3.8049 H         1 <1>         0.1309
     36 H12        -0.3472    5.7297    6.1448 H         1 <1>         0.1283
     37 H13         3.4248    4.0641    7.2467 H         1 <1>         0.1300
     38 H14         3.8293    3.4116    4.9097 H         1 <1>         0.1417
@<TRIPOS>BOND
     1    1    6 ar
     2    1    2 ar
     3    1   25 1
     4    2    3 ar
     5    2   26 1
     6    3    4 ar
     7    3   27 1
     8    4    5 ar
     9    4    7 1
    10    5    6 ar
    11    5   28 1
    12    6   29 1
    13    7   11 1
    14    7    8 1
    15    8    9 2
    16    8   30 1
    17    9   10 1
    18    9   18 1
    19   10   15 1
    20   10   11 2
    21   11   12 1
    22   12   13 2
    23   13   14 1
    24   13   31 1
    25   14   15 1
    26   14   17 1
    27   15   16 2
    28   16   32 1
    29   17   33 1
    30   17   34 1
    31   18   23 ar
    32   18   19 ar
    33   19   20 ar
    34   19   35 1
    35   20   21 ar
    36   20   36 1
    37   21   22 ar
    38   21   24 1
    39   22   23 ar
    40   22   37 1
    41   23   38 1
@<TRIPOS>Similarity
1.1747
@<TRIPOS>ShapeSim
0.6571
@<TRIPOS>PharmSim
0.5176
# END
# Name:		ZINC03852044
# Created and modified by SHAFTS on Mon Jun 23 14:53:19 2014

# 

@<TRIPOS>MOLECULE
ZINC03852044
   38    41     0
SMALL
USER_CHARGE


@<TRIPOS>ATOM
      1 C1          0.1582    0.9991   -2.4695 C.ar      1 <1>        -0.0994
      2 C2          0.1882    0.3945   -1.2262 C.ar      1 <1>        -0.0928
      3 C3          0.7741    1.0417   -0.1559 C.ar      1 <1>        -0.0619
      4 C4          1.3329    2.3009   -0.3292 C.ar      1 <1>        -0.0216
      5 C5          1.2958    2.9080   -1.5775 C.ar      1 <1>        -0.0586
      6 C6          0.7139    2.2531   -2.6453 C.ar      1 <1>        -0.0902
      7 N1          1.9279    2.9600    0.7544 N.pl3     1 <1>        -0.3062
      8 C7          1.3489    3.1243    1.9832 C.2       1 <1>        -0.0165
      9 C8          2.1985    3.8089    2.7931 C.2       1 <1>        -0.0180
     10 C9          3.3993    4.0776    1.9994 C.2       1 <1>         0.0567
     11 C10         3.1737    3.5255    0.7373 C.2       1 <1>         0.0436
     12 N2          4.1295    3.6289   -0.2038 N.2       1 <1>        -0.3378
     13 C11         5.2617    4.2265    0.0148 C.2       1 <1>         0.0259
     14 N3          5.5820    4.7973    1.2069 N.pl3     1 <1>        -0.4556
     15 C12         4.6746    4.7523    2.2510 C.2       1 <1>         0.0017
     16 N4          4.9453    5.2912    3.4166 N.2       1 <1>        -0.4330
     17 N5          6.7912    5.4105    1.3729 N.3       1 <1>         0.3831
     18 C13         1.9595    4.2005    4.2031 C.ar      1 <1>        -0.0551
     19 C14         0.7798    4.8534    4.5574 C.ar      1 <1>        -0.0758
     20 C15         0.5645    5.2200    5.8700 C.ar      1 <1>        -0.0734
     21 C16         1.5129    4.9312    6.8364 C.ar      1 <1>        -0.0201
     22 C17         2.6861    4.2831    6.4899 C.ar      1 <1>        -0.0664
     23 C18         2.9136    3.9169    5.1791 C.ar      1 <1>        -0.0667
     24 Cl1         1.2329    5.3893    8.4873 Cl        1 <1>        -0.1513
     25 H1         -0.2998    0.4907   -3.3051 H         1 <1>         0.1228
     26 H2         -0.2466   -0.5849   -1.0921 H         1 <1>         0.1270
     27 H3          0.7977    0.5687    0.8146 H         1 <1>         0.1327
     28 H4          1.7257    3.8893   -1.7143 H         1 <1>         0.1358
     29 H5          0.6890    2.7228   -3.6175 H         1 <1>         0.1273
     30 H6          0.3691    2.7677    2.2647 H         1 <1>         0.2071
     31 H7          5.9829    4.2721   -0.7877 H         1 <1>         0.3043
     32 H8          5.7968    5.7331    3.5607 H         1 <1>         0.2510
     33 H9          7.4848    4.7580    1.7063 H         1 <1>         0.0189
     34 H10         7.0926    5.8530    0.5176 H         1 <1>         0.0314
     35 H11         0.0377    5.0758    3.8049 H         1 <1>         0.1309
     36 H12        -0.3472    5.7297    6.1448 H         1 <1>         0.1283
     37 H13         3.4248    4.0641    7.2467 H         1 <1>         0.1300
     38 H14         3.8293    3.4116    4.9097 H         1 <1>         0.1417
@<TRIPOS>BOND
     1    1    6 ar
     2    1    2 ar
     3    1   25 1
     4    2    3 ar
     5    2   26 1
     6    3    4 ar
     7    3   27 1
     8    4    5 ar
     9    4    7 1
    10    5    6 ar
    11    5   28 1
    12    6   29 1
    13    7   11 1
    14    7    8 1
    15    8    9 2
    16    8   30 1
    17    9   10 1
    18    9   18 1
    19   10   15 1
    20   10   11 2
    21   11   12 1
    22   12   13 2
    23   13   14 1
    24   13   31 1
    25   14   15 1
    26   14   17 1
    27   15   16 2
    28   16   32 1
    29   17   33 1
    30   17   34 1
    31   18   23 ar
    32   18   19 ar
    33   19   20 ar
    34   19   35 1
    35   20   21 ar
    36   20   36 1
    37   21   22 ar
    38   21   24 1
    39   22   23 ar
    40   22   37 1
    41   23   38 1
@<TRIPOS>Similarity
1.1747
@<TRIPOS>ShapeSim
0.6571
@<TRIPOS>PharmSim
0.5176
# END
# Name:		ZINC03852044
# Created and modified by SHAFTS on Mon Jun 23 14:53:19 2014

# 

@<TRIPOS>MOLECULE
ZINC03852044
   38    41     0
SMALL
USER_CHARGE


@<TRIPOS>ATOM
      1 C1          0.1582    0.9991   -2.4695 C.ar      1 <1>        -0.0994
      2 C2          0.1882    0.3945   -1.2262 C.ar      1 <1>        -0.0928
      3 C3          0.7741    1.0417   -0.1559 C.ar      1 <1>        -0.0619
      4 C4          1.3329    2.3009   -0.3292 C.ar      1 <1>        -0.0216
      5 C5          1.2958    2.9080   -1.5775 C.ar      1 <1>        -0.0586
      6 C6          0.7139    2.2531   -2.6453 C.ar      1 <1>        -0.0902
      7 N1          1.9279    2.9600    0.7544 N.pl3     1 <1>        -0.3062
      8 C7          1.3489    3.1243    1.9832 C.2       1 <1>        -0.0165
      9 C8          2.1985    3.8089    2.7931 C.2       1 <1>        -0.0180
     10 C9          3.3993    4.0776    1.9994 C.2       1 <1>         0.0567
     11 C10         3.1737    3.5255    0.7373 C.2       1 <1>         0.0436
     12 N2          4.1295    3.6289   -0.2038 N.2       1 <1>        -0.3378
     13 C11         5.2617    4.2265    0.0148 C.2       1 <1>         0.0259
     14 N3          5.5820    4.7973    1.2069 N.pl3     1 <1>        -0.4556
     15 C12         4.6746    4.7523    2.2510 C.2       1 <1>         0.0017
     16 N4          4.9453    5.2912    3.4166 N.2       1 <1>        -0.4330
     17 N5          6.7912    5.4105    1.3729 N.3       1 <1>         0.3831
     18 C13         1.9595    4.2005    4.2031 C.ar      1 <1>        -0.0551
     19 C14         0.7798    4.8534    4.5574 C.ar      1 <1>        -0.0758
     20 C15         0.5645    5.2200    5.8700 C.ar      1 <1>        -0.0734
     21 C16         1.5129    4.9312    6.8364 C.ar      1 <1>        -0.0201
     22 C17         2.6861    4.2831    6.4899 C.ar      1 <1>        -0.0664
     23 C18         2.9136    3.9169    5.1791 C.ar      1 <1>        -0.0667
     24 Cl1         1.2329    5.3893    8.4873 Cl        1 <1>        -0.1513
     25 H1         -0.2998    0.4907   -3.3051 H         1 <1>         0.1228
     26 H2         -0.2466   -0.5849   -1.0921 H         1 <1>         0.1270
     27 H3          0.7977    0.5687    0.8146 H         1 <1>         0.1327
     28 H4          1.7257    3.8893   -1.7143 H         1 <1>         0.1358
     29 H5          0.6890    2.7228   -3.6175 H         1 <1>         0.1273
     30 H6          0.3691    2.7677    2.2647 H         1 <1>         0.2071
     31 H7          5.9829    4.2721   -0.7877 H         1 <1>         0.3043
     32 H8          5.7968    5.7331    3.5607 H         1 <1>         0.2510
     33 H9          7.4848    4.7580    1.7063 H         1 <1>         0.0189
     34 H10         7.0926    5.8530    0.5176 H         1 <1>         0.0314
     35 H11         0.0377    5.0758    3.8049 H         1 <1>         0.1309
     36 H12        -0.3472    5.7297    6.1448 H         1 <1>         0.1283
     37 H13         3.4248    4.0641    7.2467 H         1 <1>         0.1300
     38 H14         3.8293    3.4116    4.9097 H         1 <1>         0.1417
@<TRIPOS>BOND
     1    1    6 ar
     2    1    2 ar
     3    1   25 1
     4    2    3 ar
     5    2   26 1
     6    3    4 ar
     7    3   27 1
     8    4    5 ar
     9    4    7 1
    10    5    6 ar
    11    5   28 1
    12    6   29 1
    13    7   11 1
    14    7    8 1
    15    8    9 2
    16    8   30 1
    17    9   10 1
    18    9   18 1
    19   10   15 1
    20   10   11 2
    21   11   12 1
    22   12   13 2
    23   13   14 1
    24   13   31 1
    25   14   15 1
    26   14   17 1
    27   15   16 2
    28   16   32 1
    29   17   33 1
    30   17   34 1
    31   18   23 ar
    32   18   19 ar
    33   19   20 ar
    34   19   35 1
    35   20   21 ar
    36   20   36 1
    37   21   22 ar
    38   21   24 1
    39   22   23 ar
    40   22   37 1
    41   23   38 1
@<TRIPOS>Similarity
1.1747
@<TRIPOS>ShapeSim
0.6571
@<TRIPOS>PharmSim
0.5176
# END
# Name:		ZINC03852046
# Created and modified by SHAFTS on Mon Jun 23 14:53:19 2014

# 

@<TRIPOS>MOLECULE
ZINC03852046
   38    41     0
SMALL
USER_CHARGE


@<TRIPOS>ATOM
      1 C1          0.7795    4.8527    4.5574 C.ar      1 <1>        -0.0757
      2 C2          0.5641    5.2193    5.8700 C.ar      1 <1>        -0.0732
      3 C3          1.5127    4.9313    6.8364 C.ar      1 <1>        -0.0198
      4 C4          2.6863    4.2838    6.4899 C.ar      1 <1>        -0.0662
      5 C5          2.9139    3.9174    5.1791 C.ar      1 <1>        -0.0666
      6 C6          1.9596    4.2004    4.2031 C.ar      1 <1>        -0.0548
      7 C7          2.1987    3.8088    2.7932 C.2       1 <1>        -0.0174
      8 C8          1.3494    3.1236    1.9833 C.2       1 <1>        -0.0160
      9 N1          1.9284    2.9594    0.7547 N.pl3     1 <1>        -0.3045
     10 C9          3.1739    3.5255    0.7373 C.2       1 <1>         0.0438
     11 C10         3.3993    4.0780    1.9993 C.2       1 <1>         0.0575
     12 C11         4.6745    4.7530    2.2509 C.2       1 <1>         0.0024
     13 N2          4.9450    5.2923    3.4164 N.2       1 <1>        -0.4323
     14 N3          5.5818    4.7980    1.2068 N.pl3     1 <1>        -0.4551
     15 C12         5.2618    4.2270    0.0148 C.2       1 <1>         0.0264
     16 N4          4.1297    3.6290   -0.2038 N.2       1 <1>        -0.3379
     17 N5          6.7909    5.4116    1.3727 N.3       1 <1>         0.3833
     18 C13         1.3333    2.3004   -0.3294 C.ar      1 <1>        -0.0139
     19 C14         1.2955    2.9082   -1.5772 C.ar      1 <1>        -0.0460
     20 C15         0.7126    2.2546   -2.6450 C.ar      1 <1>        -0.0573
     21 C16         0.1567    0.9995   -2.4697 C.ar      1 <1>        -0.0084
     22 C17         0.1889    0.3936   -1.2260 C.ar      1 <1>        -0.0600
     23 C18         0.7752    1.0408   -0.1562 C.ar      1 <1>        -0.0492
     24 Cl1        -0.5816    0.1835   -3.8124 Cl        1 <1>        -0.1371
     25 Cl2         1.2326    5.3894    8.4872 Cl        1 <1>        -0.1508
     26 H1          0.0373    5.0746    3.8049 H         1 <1>         0.1312
     27 H2         -0.3480    5.7283    6.1448 H         1 <1>         0.1285
     28 H3          3.4251    4.0652    7.2467 H         1 <1>         0.1302
     29 H4          3.8299    3.4127    4.9098 H         1 <1>         0.1418
     30 H5          0.3699    2.7665    2.2648 H         1 <1>         0.2078
     31 H6          5.7963    5.7344    3.5604 H         1 <1>         0.2518
     32 H7          5.9830    4.2725   -0.7877 H         1 <1>         0.3054
     33 H8          7.4847    4.7592    1.7062 H         1 <1>         0.0193
     34 H9          7.0922    5.8540    0.5175 H         1 <1>         0.0317
     35 H10         1.7252    3.8897   -1.7134 H         1 <1>         0.1482
     36 H11         0.6870    2.7251   -3.6168 H         1 <1>         0.1439
     37 H12        -0.2453   -0.5862   -1.0918 H         1 <1>         0.1436
     38 H13         0.7995    0.5678    0.8144 H         1 <1>         0.1453
@<TRIPOS>BOND
     1    1    6 ar
     2    1    2 ar
     3    1   26 1
     4    2    3 ar
     5    2   27 1
     6    3    4 ar
     7    3   25 1
     8    4    5 ar
     9    4   28 1
    10    5    6 ar
    11    5   29 1
    12    6    7 1
    13    7   11 1
    14    7    8 2
    15    8    9 1
    16    8   30 1
    17    9   10 1
    18    9   18 1
    19   10   16 1
    20   10   11 2
    21   11   12 1
    22   12   13 2
    23   12   14 1
    24   13   31 1
    25   14   15 1
    26   14   17 1
    27   15   16 2
    28   15   32 1
    29   17   33 1
    30   17   34 1
    31   18   23 ar
    32   18   19 ar
    33   19   20 ar
    34   19   35 1
    35   20   21 ar
    36   20   36 1
    37   21   22 ar
    38   21   24 1
    39   22   23 ar
    40   22   37 1
    41   23   38 1
@<TRIPOS>Similarity
1.1426
@<TRIPOS>ShapeSim
0.6485
@<TRIPOS>PharmSim
0.4941
# END
# Name:		ZINC03852046
# Created and modified by SHAFTS on Mon Jun 23 14:53:19 2014

# 

@<TRIPOS>MOLECULE
ZINC03852046
   38    41     0
SMALL
USER_CHARGE


@<TRIPOS>ATOM
      1 C1          0.7795    4.8527    4.5574 C.ar      1 <1>        -0.0757
      2 C2          0.5641    5.2193    5.8700 C.ar      1 <1>        -0.0732
      3 C3          1.5127    4.9313    6.8364 C.ar      1 <1>        -0.0198
      4 C4          2.6863    4.2838    6.4899 C.ar      1 <1>        -0.0662
      5 C5          2.9139    3.9174    5.1791 C.ar      1 <1>        -0.0666
      6 C6          1.9596    4.2004    4.2031 C.ar      1 <1>        -0.0548
      7 C7          2.1987    3.8088    2.7932 C.2       1 <1>        -0.0174
      8 C8          1.3494    3.1236    1.9833 C.2       1 <1>        -0.0160
      9 N1          1.9284    2.9594    0.7547 N.pl3     1 <1>        -0.3045
     10 C9          3.1739    3.5255    0.7373 C.2       1 <1>         0.0438
     11 C10         3.3993    4.0780    1.9993 C.2       1 <1>         0.0575
     12 C11         4.6745    4.7530    2.2509 C.2       1 <1>         0.0024
     13 N2          4.9450    5.2923    3.4164 N.2       1 <1>        -0.4323
     14 N3          5.5818    4.7980    1.2068 N.pl3     1 <1>        -0.4551
     15 C12         5.2618    4.2270    0.0148 C.2       1 <1>         0.0264
     16 N4          4.1297    3.6290   -0.2038 N.2       1 <1>        -0.3379
     17 N5          6.7909    5.4116    1.3727 N.3       1 <1>         0.3833
     18 C13         1.3333    2.3004   -0.3294 C.ar      1 <1>        -0.0139
     19 C14         1.2955    2.9082   -1.5772 C.ar      1 <1>        -0.0460
     20 C15         0.7126    2.2546   -2.6450 C.ar      1 <1>        -0.0573
     21 C16         0.1567    0.9995   -2.4697 C.ar      1 <1>        -0.0084
     22 C17         0.1889    0.3936   -1.2260 C.ar      1 <1>        -0.0600
     23 C18         0.7752    1.0408   -0.1562 C.ar      1 <1>        -0.0492
     24 Cl1        -0.5816    0.1835   -3.8124 Cl        1 <1>        -0.1371
     25 Cl2         1.2326    5.3894    8.4872 Cl        1 <1>        -0.1508
     26 H1          0.0373    5.0746    3.8049 H         1 <1>         0.1312
     27 H2         -0.3480    5.7283    6.1448 H         1 <1>         0.1285
     28 H3          3.4251    4.0652    7.2467 H         1 <1>         0.1302
     29 H4          3.8299    3.4127    4.9098 H         1 <1>         0.1418
     30 H5          0.3699    2.7665    2.2648 H         1 <1>         0.2078
     31 H6          5.7963    5.7344    3.5604 H         1 <1>         0.2518
     32 H7          5.9830    4.2725   -0.7877 H         1 <1>         0.3054
     33 H8          7.4847    4.7592    1.7062 H         1 <1>         0.0193
     34 H9          7.0922    5.8540    0.5175 H         1 <1>         0.0317
     35 H10         1.7252    3.8897   -1.7134 H         1 <1>         0.1482
     36 H11         0.6870    2.7251   -3.6168 H         1 <1>         0.1439
     37 H12        -0.2453   -0.5862   -1.0918 H         1 <1>         0.1436
     38 H13         0.7995    0.5678    0.8144 H         1 <1>         0.1453
@<TRIPOS>BOND
     1    1    6 ar
     2    1    2 ar
     3    1   26 1
     4    2    3 ar
     5    2   27 1
     6    3    4 ar
     7    3   25 1
     8    4    5 ar
     9    4   28 1
    10    5    6 ar
    11    5   29 1
    12    6    7 1
    13    7   11 1
    14    7    8 2
    15    8    9 1
    16    8   30 1
    17    9   10 1
    18    9   18 1
    19   10   16 1
    20   10   11 2
    21   11   12 1
    22   12   13 2
    23   12   14 1
    24   13   31 1
    25   14   15 1
    26   14   17 1
    27   15   16 2
    28   15   32 1
    29   17   33 1
    30   17   34 1
    31   18   23 ar
    32   18   19 ar
    33   19   20 ar
    34   19   35 1
    35   20   21 ar
    36   20   36 1
    37   21   22 ar
    38   21   24 1
    39   22   23 ar
    40   22   37 1
    41   23   38 1
@<TRIPOS>Similarity
1.1426
@<TRIPOS>ShapeSim
0.6485
@<TRIPOS>PharmSim
0.4941
# END
# Name:		ZINC03852046
# Created and modified by SHAFTS on Mon Jun 23 14:53:19 2014

# 

@<TRIPOS>MOLECULE
ZINC03852046
   38    41     0
SMALL
USER_CHARGE


@<TRIPOS>ATOM
      1 C1          0.7795    4.8527    4.5574 C.ar      1 <1>        -0.0757
      2 C2          0.5641    5.2193    5.8700 C.ar      1 <1>        -0.0732
      3 C3          1.5127    4.9313    6.8364 C.ar      1 <1>        -0.0198
      4 C4          2.6863    4.2838    6.4899 C.ar      1 <1>        -0.0662
      5 C5          2.9139    3.9174    5.1791 C.ar      1 <1>        -0.0666
      6 C6          1.9596    4.2004    4.2031 C.ar      1 <1>        -0.0548
      7 C7          2.1987    3.8088    2.7932 C.2       1 <1>        -0.0174
      8 C8          1.3494    3.1236    1.9833 C.2       1 <1>        -0.0160
      9 N1          1.9284    2.9594    0.7547 N.pl3     1 <1>        -0.3045
     10 C9          3.1739    3.5255    0.7373 C.2       1 <1>         0.0438
     11 C10         3.3993    4.0780    1.9993 C.2       1 <1>         0.0575
     12 C11         4.6745    4.7530    2.2509 C.2       1 <1>         0.0024
     13 N2          4.9450    5.2923    3.4164 N.2       1 <1>        -0.4323
     14 N3          5.5818    4.7980    1.2068 N.pl3     1 <1>        -0.4551
     15 C12         5.2618    4.2270    0.0148 C.2       1 <1>         0.0264
     16 N4          4.1297    3.6290   -0.2038 N.2       1 <1>        -0.3379
     17 N5          6.7909    5.4116    1.3727 N.3       1 <1>         0.3833
     18 C13         1.3333    2.3004   -0.3294 C.ar      1 <1>        -0.0139
     19 C14         1.2955    2.9082   -1.5772 C.ar      1 <1>        -0.0460
     20 C15         0.7126    2.2546   -2.6450 C.ar      1 <1>        -0.0573
     21 C16         0.1567    0.9995   -2.4697 C.ar      1 <1>        -0.0084
     22 C17         0.1889    0.3936   -1.2260 C.ar      1 <1>        -0.0600
     23 C18         0.7752    1.0408   -0.1562 C.ar      1 <1>        -0.0492
     24 Cl1        -0.5816    0.1835   -3.8124 Cl        1 <1>        -0.1371
     25 Cl2         1.2326    5.3894    8.4872 Cl        1 <1>        -0.1508
     26 H1          0.0373    5.0746    3.8049 H         1 <1>         0.1312
     27 H2         -0.3480    5.7283    6.1448 H         1 <1>         0.1285
     28 H3          3.4251    4.0652    7.2467 H         1 <1>         0.1302
     29 H4          3.8299    3.4127    4.9098 H         1 <1>         0.1418
     30 H5          0.3699    2.7665    2.2648 H         1 <1>         0.2078
     31 H6          5.7963    5.7344    3.5604 H         1 <1>         0.2518
     32 H7          5.9830    4.2725   -0.7877 H         1 <1>         0.3054
     33 H8          7.4847    4.7592    1.7062 H         1 <1>         0.0193
     34 H9          7.0922    5.8540    0.5175 H         1 <1>         0.0317
     35 H10         1.7252    3.8897   -1.7134 H         1 <1>         0.1482
     36 H11         0.6870    2.7251   -3.6168 H         1 <1>         0.1439
     37 H12        -0.2453   -0.5862   -1.0918 H         1 <1>         0.1436
     38 H13         0.7995    0.5678    0.8144 H         1 <1>         0.1453
@<TRIPOS>BOND
     1    1    6 ar
     2    1    2 ar
     3    1   26 1
     4    2    3 ar
     5    2   27 1
     6    3    4 ar
     7    3   25 1
     8    4    5 ar
     9    4   28 1
    10    5    6 ar
    11    5   29 1
    12    6    7 1
    13    7   11 1
    14    7    8 2
    15    8    9 1
    16    8   30 1
    17    9   10 1
    18    9   18 1
    19   10   16 1
    20   10   11 2
    21   11   12 1
    22   12   13 2
    23   12   14 1
    24   13   31 1
    25   14   15 1
    26   14   17 1
    27   15   16 2
    28   15   32 1
    29   17   33 1
    30   17   34 1
    31   18   23 ar
    32   18   19 ar
    33   19   20 ar
    34   19   35 1
    35   20   21 ar
    36   20   36 1
    37   21   22 ar
    38   21   24 1
    39   22   23 ar
    40   22   37 1
    41   23   38 1
@<TRIPOS>Similarity
1.1426
@<TRIPOS>ShapeSim
0.6485
@<TRIPOS>PharmSim
0.4941
# END
# Name:		ZINC03852046
# Created and modified by SHAFTS on Mon Jun 23 14:53:19 2014

# 

@<TRIPOS>MOLECULE
ZINC03852046
   38    41     0
SMALL
USER_CHARGE


@<TRIPOS>ATOM
      1 C1          0.7795    4.8527    4.5574 C.ar      1 <1>        -0.0757
      2 C2          0.5641    5.2193    5.8700 C.ar      1 <1>        -0.0732
      3 C3          1.5127    4.9313    6.8364 C.ar      1 <1>        -0.0198
      4 C4          2.6863    4.2838    6.4899 C.ar      1 <1>        -0.0662
      5 C5          2.9139    3.9174    5.1791 C.ar      1 <1>        -0.0666
      6 C6          1.9596    4.2004    4.2031 C.ar      1 <1>        -0.0548
      7 C7          2.1987    3.8088    2.7932 C.2       1 <1>        -0.0174
      8 C8          1.3494    3.1236    1.9833 C.2       1 <1>        -0.0160
      9 N1          1.9284    2.9594    0.7547 N.pl3     1 <1>        -0.3045
     10 C9          3.1739    3.5255    0.7373 C.2       1 <1>         0.0438
     11 C10         3.3993    4.0780    1.9993 C.2       1 <1>         0.0575
     12 C11         4.6745    4.7530    2.2509 C.2       1 <1>         0.0024
     13 N2          4.9450    5.2923    3.4164 N.2       1 <1>        -0.4323
     14 N3          5.5818    4.7980    1.2068 N.pl3     1 <1>        -0.4551
     15 C12         5.2618    4.2270    0.0148 C.2       1 <1>         0.0264
     16 N4          4.1297    3.6290   -0.2038 N.2       1 <1>        -0.3379
     17 N5          6.7909    5.4116    1.3727 N.3       1 <1>         0.3833
     18 C13         1.3333    2.3004   -0.3294 C.ar      1 <1>        -0.0139
     19 C14         1.2955    2.9082   -1.5772 C.ar      1 <1>        -0.0460
     20 C15         0.7126    2.2546   -2.6450 C.ar      1 <1>        -0.0573
     21 C16         0.1567    0.9995   -2.4697 C.ar      1 <1>        -0.0084
     22 C17         0.1889    0.3936   -1.2260 C.ar      1 <1>        -0.0600
     23 C18         0.7752    1.0408   -0.1562 C.ar      1 <1>        -0.0492
     24 Cl1        -0.5816    0.1835   -3.8124 Cl        1 <1>        -0.1371
     25 Cl2         1.2326    5.3894    8.4872 Cl        1 <1>        -0.1508
     26 H1          0.0373    5.0746    3.8049 H         1 <1>         0.1312
     27 H2         -0.3480    5.7283    6.1448 H         1 <1>         0.1285
     28 H3          3.4251    4.0652    7.2467 H         1 <1>         0.1302
     29 H4          3.8299    3.4127    4.9098 H         1 <1>         0.1418
     30 H5          0.3699    2.7665    2.2648 H         1 <1>         0.2078
     31 H6          5.7963    5.7344    3.5604 H         1 <1>         0.2518
     32 H7          5.9830    4.2725   -0.7877 H         1 <1>         0.3054
     33 H8          7.4847    4.7592    1.7062 H         1 <1>         0.0193
     34 H9          7.0922    5.8540    0.5175 H         1 <1>         0.0317
     35 H10         1.7252    3.8897   -1.7134 H         1 <1>         0.1482
     36 H11         0.6870    2.7251   -3.6168 H         1 <1>         0.1439
     37 H12        -0.2453   -0.5862   -1.0918 H         1 <1>         0.1436
     38 H13         0.7995    0.5678    0.8144 H         1 <1>         0.1453
@<TRIPOS>BOND
     1    1    6 ar
     2    1    2 ar
     3    1   26 1
     4    2    3 ar
     5    2   27 1
     6    3    4 ar
     7    3   25 1
     8    4    5 ar
     9    4   28 1
    10    5    6 ar
    11    5   29 1
    12    6    7 1
    13    7   11 1
    14    7    8 2
    15    8    9 1
    16    8   30 1
    17    9   10 1
    18    9   18 1
    19   10   16 1
    20   10   11 2
    21   11   12 1
    22   12   13 2
    23   12   14 1
    24   13   31 1
    25   14   15 1
    26   14   17 1
    27   15   16 2
    28   15   32 1
    29   17   33 1
    30   17   34 1
    31   18   23 ar
    32   18   19 ar
    33   19   20 ar
    34   19   35 1
    35   20   21 ar
    36   20   36 1
    37   21   22 ar
    38   21   24 1
    39   22   23 ar
    40   22   37 1
    41   23   38 1
@<TRIPOS>Similarity
1.1426
@<TRIPOS>ShapeSim
0.6485
@<TRIPOS>PharmSim
0.4941
# END
# Name:		ZINC03852046
# Created and modified by SHAFTS on Mon Jun 23 14:53:19 2014

# 

@<TRIPOS>MOLECULE
ZINC03852046
   38    41     0
SMALL
USER_CHARGE


@<TRIPOS>ATOM
      1 C1          0.7795    4.8527    4.5574 C.ar      1 <1>        -0.0757
      2 C2          0.5641    5.2193    5.8700 C.ar      1 <1>        -0.0732
      3 C3          1.5127    4.9313    6.8364 C.ar      1 <1>        -0.0198
      4 C4          2.6863    4.2838    6.4899 C.ar      1 <1>        -0.0662
      5 C5          2.9139    3.9174    5.1791 C.ar      1 <1>        -0.0666
      6 C6          1.9596    4.2004    4.2031 C.ar      1 <1>        -0.0548
      7 C7          2.1987    3.8088    2.7932 C.2       1 <1>        -0.0174
      8 C8          1.3494    3.1236    1.9833 C.2       1 <1>        -0.0160
      9 N1          1.9284    2.9594    0.7547 N.pl3     1 <1>        -0.3045
     10 C9          3.1739    3.5255    0.7373 C.2       1 <1>         0.0438
     11 C10         3.3993    4.0780    1.9993 C.2       1 <1>         0.0575
     12 C11         4.6745    4.7530    2.2509 C.2       1 <1>         0.0024
     13 N2          4.9450    5.2923    3.4164 N.2       1 <1>        -0.4323
     14 N3          5.5818    4.7980    1.2068 N.pl3     1 <1>        -0.4551
     15 C12         5.2618    4.2270    0.0148 C.2       1 <1>         0.0264
     16 N4          4.1297    3.6290   -0.2038 N.2       1 <1>        -0.3379
     17 N5          6.7909    5.4116    1.3727 N.3       1 <1>         0.3833
     18 C13         1.3333    2.3004   -0.3294 C.ar      1 <1>        -0.0139
     19 C14         1.2955    2.9082   -1.5772 C.ar      1 <1>        -0.0460
     20 C15         0.7126    2.2546   -2.6450 C.ar      1 <1>        -0.0573
     21 C16         0.1567    0.9995   -2.4697 C.ar      1 <1>        -0.0084
     22 C17         0.1889    0.3936   -1.2260 C.ar      1 <1>        -0.0600
     23 C18         0.7752    1.0408   -0.1562 C.ar      1 <1>        -0.0492
     24 Cl1        -0.5816    0.1835   -3.8124 Cl        1 <1>        -0.1371
     25 Cl2         1.2326    5.3894    8.4872 Cl        1 <1>        -0.1508
     26 H1          0.0373    5.0746    3.8049 H         1 <1>         0.1312
     27 H2         -0.3480    5.7283    6.1448 H         1 <1>         0.1285
     28 H3          3.4251    4.0652    7.2467 H         1 <1>         0.1302
     29 H4          3.8299    3.4127    4.9098 H         1 <1>         0.1418
     30 H5          0.3699    2.7665    2.2648 H         1 <1>         0.2078
     31 H6          5.7963    5.7344    3.5604 H         1 <1>         0.2518
     32 H7          5.9830    4.2725   -0.7877 H         1 <1>         0.3054
     33 H8          7.4847    4.7592    1.7062 H         1 <1>         0.0193
     34 H9          7.0922    5.8540    0.5175 H         1 <1>         0.0317
     35 H10         1.7252    3.8897   -1.7134 H         1 <1>         0.1482
     36 H11         0.6870    2.7251   -3.6168 H         1 <1>         0.1439
     37 H12        -0.2453   -0.5862   -1.0918 H         1 <1>         0.1436
     38 H13         0.7995    0.5678    0.8144 H         1 <1>         0.1453
@<TRIPOS>BOND
     1    1    6 ar
     2    1    2 ar
     3    1   26 1
     4    2    3 ar
     5    2   27 1
     6    3    4 ar
     7    3   25 1
     8    4    5 ar
     9    4   28 1
    10    5    6 ar
    11    5   29 1
    12    6    7 1
    13    7   11 1
    14    7    8 2
    15    8    9 1
    16    8   30 1
    17    9   10 1
    18    9   18 1
    19   10   16 1
    20   10   11 2
    21   11   12 1
    22   12   13 2
    23   12   14 1
    24   13   31 1
    25   14   15 1
    26   14   17 1
    27   15   16 2
    28   15   32 1
    29   17   33 1
    30   17   34 1
    31   18   23 ar
    32   18   19 ar
    33   19   20 ar
    34   19   35 1
    35   20   21 ar
    36   20   36 1
    37   21   22 ar
    38   21   24 1
    39   22   23 ar
    40   22   37 1
    41   23   38 1
@<TRIPOS>Similarity
1.1426
@<TRIPOS>ShapeSim
0.6485
@<TRIPOS>PharmSim
0.4941
# END
# Name:		ZINC03852046
# Created and modified by SHAFTS on Mon Jun 23 14:53:19 2014

# 

@<TRIPOS>MOLECULE
ZINC03852046
   38    41     0
SMALL
USER_CHARGE


@<TRIPOS>ATOM
      1 C1          0.7795    4.8527    4.5574 C.ar      1 <1>        -0.0757
      2 C2          0.5641    5.2193    5.8700 C.ar      1 <1>        -0.0732
      3 C3          1.5127    4.9313    6.8364 C.ar      1 <1>        -0.0198
      4 C4          2.6863    4.2838    6.4899 C.ar      1 <1>        -0.0662
      5 C5          2.9139    3.9174    5.1791 C.ar      1 <1>        -0.0666
      6 C6          1.9596    4.2004    4.2031 C.ar      1 <1>        -0.0548
      7 C7          2.1987    3.8088    2.7932 C.2       1 <1>        -0.0174
      8 C8          1.3494    3.1236    1.9833 C.2       1 <1>        -0.0160
      9 N1          1.9284    2.9594    0.7547 N.pl3     1 <1>        -0.3045
     10 C9          3.1739    3.5255    0.7373 C.2       1 <1>         0.0438
     11 C10         3.3993    4.0780    1.9993 C.2       1 <1>         0.0575
     12 C11         4.6745    4.7530    2.2509 C.2       1 <1>         0.0024
     13 N2          4.9450    5.2923    3.4164 N.2       1 <1>        -0.4323
     14 N3          5.5818    4.7980    1.2068 N.pl3     1 <1>        -0.4551
     15 C12         5.2618    4.2270    0.0148 C.2       1 <1>         0.0264
     16 N4          4.1297    3.6290   -0.2038 N.2       1 <1>        -0.3379
     17 N5          6.7909    5.4116    1.3727 N.3       1 <1>         0.3833
     18 C13         1.3333    2.3004   -0.3294 C.ar      1 <1>        -0.0139
     19 C14         1.2955    2.9082   -1.5772 C.ar      1 <1>        -0.0460
     20 C15         0.7126    2.2546   -2.6450 C.ar      1 <1>        -0.0573
     21 C16         0.1567    0.9995   -2.4697 C.ar      1 <1>        -0.0084
     22 C17         0.1889    0.3936   -1.2260 C.ar      1 <1>        -0.0600
     23 C18         0.7752    1.0408   -0.1562 C.ar      1 <1>        -0.0492
     24 Cl1        -0.5816    0.1835   -3.8124 Cl        1 <1>        -0.1371
     25 Cl2         1.2326    5.3894    8.4872 Cl        1 <1>        -0.1508
     26 H1          0.0373    5.0746    3.8049 H         1 <1>         0.1312
     27 H2         -0.3480    5.7283    6.1448 H         1 <1>         0.1285
     28 H3          3.4251    4.0652    7.2467 H         1 <1>         0.1302
     29 H4          3.8299    3.4127    4.9098 H         1 <1>         0.1418
     30 H5          0.3699    2.7665    2.2648 H         1 <1>         0.2078
     31 H6          5.7963    5.7344    3.5604 H         1 <1>         0.2518
     32 H7          5.9830    4.2725   -0.7877 H         1 <1>         0.3054
     33 H8          7.4847    4.7592    1.7062 H         1 <1>         0.0193
     34 H9          7.0922    5.8540    0.5175 H         1 <1>         0.0317
     35 H10         1.7252    3.8897   -1.7134 H         1 <1>         0.1482
     36 H11         0.6870    2.7251   -3.6168 H         1 <1>         0.1439
     37 H12        -0.2453   -0.5862   -1.0918 H         1 <1>         0.1436
     38 H13         0.7995    0.5678    0.8144 H         1 <1>         0.1453
@<TRIPOS>BOND
     1    1    6 ar
     2    1    2 ar
     3    1   26 1
     4    2    3 ar
     5    2   27 1
     6    3    4 ar
     7    3   25 1
     8    4    5 ar
     9    4   28 1
    10    5    6 ar
    11    5   29 1
    12    6    7 1
    13    7   11 1
    14    7    8 2
    15    8    9 1
    16    8   30 1
    17    9   10 1
    18    9   18 1
    19   10   16 1
    20   10   11 2
    21   11   12 1
    22   12   13 2
    23   12   14 1
    24   13   31 1
    25   14   15 1
    26   14   17 1
    27   15   16 2
    28   15   32 1
    29   17   33 1
    30   17   34 1
    31   18   23 ar
    32   18   19 ar
    33   19   20 ar
    34   19   35 1
    35   20   21 ar
    36   20   36 1
    37   21   22 ar
    38   21   24 1
    39   22   23 ar
    40   22   37 1
    41   23   38 1
@<TRIPOS>Similarity
1.1426
@<TRIPOS>ShapeSim
0.6485
@<TRIPOS>PharmSim
0.4941
# END
# Name:		ZINC03852046
# Created and modified by SHAFTS on Mon Jun 23 14:53:19 2014

# 

@<TRIPOS>MOLECULE
ZINC03852046
   38    41     0
SMALL
USER_CHARGE


@<TRIPOS>ATOM
      1 C1          0.7795    4.8527    4.5574 C.ar      1 <1>        -0.0757
      2 C2          0.5641    5.2193    5.8700 C.ar      1 <1>        -0.0732
      3 C3          1.5127    4.9313    6.8364 C.ar      1 <1>        -0.0198
      4 C4          2.6863    4.2838    6.4899 C.ar      1 <1>        -0.0662
      5 C5          2.9139    3.9174    5.1791 C.ar      1 <1>        -0.0666
      6 C6          1.9596    4.2004    4.2031 C.ar      1 <1>        -0.0548
      7 C7          2.1987    3.8088    2.7932 C.2       1 <1>        -0.0174
      8 C8          1.3494    3.1236    1.9833 C.2       1 <1>        -0.0160
      9 N1          1.9284    2.9594    0.7547 N.pl3     1 <1>        -0.3045
     10 C9          3.1739    3.5255    0.7373 C.2       1 <1>         0.0438
     11 C10         3.3993    4.0780    1.9993 C.2       1 <1>         0.0575
     12 C11         4.6745    4.7530    2.2509 C.2       1 <1>         0.0024
     13 N2          4.9450    5.2923    3.4164 N.2       1 <1>        -0.4323
     14 N3          5.5818    4.7980    1.2068 N.pl3     1 <1>        -0.4551
     15 C12         5.2618    4.2270    0.0148 C.2       1 <1>         0.0264
     16 N4          4.1297    3.6290   -0.2038 N.2       1 <1>        -0.3379
     17 N5          6.7909    5.4116    1.3727 N.3       1 <1>         0.3833
     18 C13         1.3333    2.3004   -0.3294 C.ar      1 <1>        -0.0139
     19 C14         1.2955    2.9082   -1.5772 C.ar      1 <1>        -0.0460
     20 C15         0.7126    2.2546   -2.6450 C.ar      1 <1>        -0.0573
     21 C16         0.1567    0.9995   -2.4697 C.ar      1 <1>        -0.0084
     22 C17         0.1889    0.3936   -1.2260 C.ar      1 <1>        -0.0600
     23 C18         0.7752    1.0408   -0.1562 C.ar      1 <1>        -0.0492
     24 Cl1        -0.5816    0.1835   -3.8124 Cl        1 <1>        -0.1371
     25 Cl2         1.2326    5.3894    8.4872 Cl        1 <1>        -0.1508
     26 H1          0.0373    5.0746    3.8049 H         1 <1>         0.1312
     27 H2         -0.3480    5.7283    6.1448 H         1 <1>         0.1285
     28 H3          3.4251    4.0652    7.2467 H         1 <1>         0.1302
     29 H4          3.8299    3.4127    4.9098 H         1 <1>         0.1418
     30 H5          0.3699    2.7665    2.2648 H         1 <1>         0.2078
     31 H6          5.7963    5.7344    3.5604 H         1 <1>         0.2518
     32 H7          5.9830    4.2725   -0.7877 H         1 <1>         0.3054
     33 H8          7.4847    4.7592    1.7062 H         1 <1>         0.0193
     34 H9          7.0922    5.8540    0.5175 H         1 <1>         0.0317
     35 H10         1.7252    3.8897   -1.7134 H         1 <1>         0.1482
     36 H11         0.6870    2.7251   -3.6168 H         1 <1>         0.1439
     37 H12        -0.2453   -0.5862   -1.0918 H         1 <1>         0.1436
     38 H13         0.7995    0.5678    0.8144 H         1 <1>         0.1453
@<TRIPOS>BOND
     1    1    6 ar
     2    1    2 ar
     3    1   26 1
     4    2    3 ar
     5    2   27 1
     6    3    4 ar
     7    3   25 1
     8    4    5 ar
     9    4   28 1
    10    5    6 ar
    11    5   29 1
    12    6    7 1
    13    7   11 1
    14    7    8 2
    15    8    9 1
    16    8   30 1
    17    9   10 1
    18    9   18 1
    19   10   16 1
    20   10   11 2
    21   11   12 1
    22   12   13 2
    23   12   14 1
    24   13   31 1
    25   14   15 1
    26   14   17 1
    27   15   16 2
    28   15   32 1
    29   17   33 1
    30   17   34 1
    31   18   23 ar
    32   18   19 ar
    33   19   20 ar
    34   19   35 1
    35   20   21 ar
    36   20   36 1
    37   21   22 ar
    38   21   24 1
    39   22   23 ar
    40   22   37 1
    41   23   38 1
@<TRIPOS>Similarity
1.1426
@<TRIPOS>ShapeSim
0.6485
@<TRIPOS>PharmSim
0.4941
# END
# Name:		ZINC03852046
# Created and modified by SHAFTS on Mon Jun 23 14:53:19 2014

# 

@<TRIPOS>MOLECULE
ZINC03852046
   38    41     0
SMALL
USER_CHARGE


@<TRIPOS>ATOM
      1 C1          0.7795    4.8527    4.5574 C.ar      1 <1>        -0.0757
      2 C2          0.5641    5.2193    5.8700 C.ar      1 <1>        -0.0732
      3 C3          1.5127    4.9313    6.8364 C.ar      1 <1>        -0.0198
      4 C4          2.6863    4.2838    6.4899 C.ar      1 <1>        -0.0662
      5 C5          2.9139    3.9174    5.1791 C.ar      1 <1>        -0.0666
      6 C6          1.9596    4.2004    4.2031 C.ar      1 <1>        -0.0548
      7 C7          2.1987    3.8088    2.7932 C.2       1 <1>        -0.0174
      8 C8          1.3494    3.1236    1.9833 C.2       1 <1>        -0.0160
      9 N1          1.9284    2.9594    0.7547 N.pl3     1 <1>        -0.3045
     10 C9          3.1739    3.5255    0.7373 C.2       1 <1>         0.0438
     11 C10         3.3993    4.0780    1.9993 C.2       1 <1>         0.0575
     12 C11         4.6745    4.7530    2.2509 C.2       1 <1>         0.0024
     13 N2          4.9450    5.2923    3.4164 N.2       1 <1>        -0.4323
     14 N3          5.5818    4.7980    1.2068 N.pl3     1 <1>        -0.4551
     15 C12         5.2618    4.2270    0.0148 C.2       1 <1>         0.0264
     16 N4          4.1297    3.6290   -0.2038 N.2       1 <1>        -0.3379
     17 N5          6.7909    5.4116    1.3727 N.3       1 <1>         0.3833
     18 C13         1.3333    2.3004   -0.3294 C.ar      1 <1>        -0.0139
     19 C14         1.2955    2.9082   -1.5772 C.ar      1 <1>        -0.0460
     20 C15         0.7126    2.2546   -2.6450 C.ar      1 <1>        -0.0573
     21 C16         0.1567    0.9995   -2.4697 C.ar      1 <1>        -0.0084
     22 C17         0.1889    0.3936   -1.2260 C.ar      1 <1>        -0.0600
     23 C18         0.7752    1.0408   -0.1562 C.ar      1 <1>        -0.0492
     24 Cl1        -0.5816    0.1835   -3.8124 Cl        1 <1>        -0.1371
     25 Cl2         1.2326    5.3894    8.4872 Cl        1 <1>        -0.1508
     26 H1          0.0373    5.0746    3.8049 H         1 <1>         0.1312
     27 H2         -0.3480    5.7283    6.1448 H         1 <1>         0.1285
     28 H3          3.4251    4.0652    7.2467 H         1 <1>         0.1302
     29 H4          3.8299    3.4127    4.9098 H         1 <1>         0.1418
     30 H5          0.3699    2.7665    2.2648 H         1 <1>         0.2078
     31 H6          5.7963    5.7344    3.5604 H         1 <1>         0.2518
     32 H7          5.9830    4.2725   -0.7877 H         1 <1>         0.3054
     33 H8          7.4847    4.7592    1.7062 H         1 <1>         0.0193
     34 H9          7.0922    5.8540    0.5175 H         1 <1>         0.0317
     35 H10         1.7252    3.8897   -1.7134 H         1 <1>         0.1482
     36 H11         0.6870    2.7251   -3.6168 H         1 <1>         0.1439
     37 H12        -0.2453   -0.5862   -1.0918 H         1 <1>         0.1436
     38 H13         0.7995    0.5678    0.8144 H         1 <1>         0.1453
@<TRIPOS>BOND
     1    1    6 ar
     2    1    2 ar
     3    1   26 1
     4    2    3 ar
     5    2   27 1
     6    3    4 ar
     7    3   25 1
     8    4    5 ar
     9    4   28 1
    10    5    6 ar
    11    5   29 1
    12    6    7 1
    13    7   11 1
    14    7    8 2
    15    8    9 1
    16    8   30 1
    17    9   10 1
    18    9   18 1
    19   10   16 1
    20   10   11 2
    21   11   12 1
    22   12   13 2
    23   12   14 1
    24   13   31 1
    25   14   15 1
    26   14   17 1
    27   15   16 2
    28   15   32 1
    29   17   33 1
    30   17   34 1
    31   18   23 ar
    32   18   19 ar
    33   19   20 ar
    34   19   35 1
    35   20   21 ar
    36   20   36 1
    37   21   22 ar
    38   21   24 1
    39   22   23 ar
    40   22   37 1
    41   23   38 1
@<TRIPOS>Similarity
1.1426
@<TRIPOS>ShapeSim
0.6485
@<TRIPOS>PharmSim
0.4941
# END
# Name:		ZINC03852046
# Created and modified by SHAFTS on Mon Jun 23 14:53:19 2014

# 

@<TRIPOS>MOLECULE
ZINC03852046
   38    41     0
SMALL
USER_CHARGE


@<TRIPOS>ATOM
      1 C1          0.7795    4.8527    4.5574 C.ar      1 <1>        -0.0757
      2 C2          0.5641    5.2193    5.8700 C.ar      1 <1>        -0.0732
      3 C3          1.5127    4.9313    6.8364 C.ar      1 <1>        -0.0198
      4 C4          2.6863    4.2838    6.4899 C.ar      1 <1>        -0.0662
      5 C5          2.9139    3.9174    5.1791 C.ar      1 <1>        -0.0666
      6 C6          1.9596    4.2004    4.2031 C.ar      1 <1>        -0.0548
      7 C7          2.1987    3.8088    2.7932 C.2       1 <1>        -0.0174
      8 C8          1.3494    3.1236    1.9833 C.2       1 <1>        -0.0160
      9 N1          1.9284    2.9594    0.7547 N.pl3     1 <1>        -0.3045
     10 C9          3.1739    3.5255    0.7373 C.2       1 <1>         0.0438
     11 C10         3.3993    4.0780    1.9993 C.2       1 <1>         0.0575
     12 C11         4.6745    4.7530    2.2509 C.2       1 <1>         0.0024
     13 N2          4.9450    5.2923    3.4164 N.2       1 <1>        -0.4323
     14 N3          5.5818    4.7980    1.2068 N.pl3     1 <1>        -0.4551
     15 C12         5.2618    4.2270    0.0148 C.2       1 <1>         0.0264
     16 N4          4.1297    3.6290   -0.2038 N.2       1 <1>        -0.3379
     17 N5          6.7909    5.4116    1.3727 N.3       1 <1>         0.3833
     18 C13         1.3333    2.3004   -0.3294 C.ar      1 <1>        -0.0139
     19 C14         1.2955    2.9082   -1.5772 C.ar      1 <1>        -0.0460
     20 C15         0.7126    2.2546   -2.6450 C.ar      1 <1>        -0.0573
     21 C16         0.1567    0.9995   -2.4697 C.ar      1 <1>        -0.0084
     22 C17         0.1889    0.3936   -1.2260 C.ar      1 <1>        -0.0600
     23 C18         0.7752    1.0408   -0.1562 C.ar      1 <1>        -0.0492
     24 Cl1        -0.5816    0.1835   -3.8124 Cl        1 <1>        -0.1371
     25 Cl2         1.2326    5.3894    8.4872 Cl        1 <1>        -0.1508
     26 H1          0.0373    5.0746    3.8049 H         1 <1>         0.1312
     27 H2         -0.3480    5.7283    6.1448 H         1 <1>         0.1285
     28 H3          3.4251    4.0652    7.2467 H         1 <1>         0.1302
     29 H4          3.8299    3.4127    4.9098 H         1 <1>         0.1418
     30 H5          0.3699    2.7665    2.2648 H         1 <1>         0.2078
     31 H6          5.7963    5.7344    3.5604 H         1 <1>         0.2518
     32 H7          5.9830    4.2725   -0.7877 H         1 <1>         0.3054
     33 H8          7.4847    4.7592    1.7062 H         1 <1>         0.0193
     34 H9          7.0922    5.8540    0.5175 H         1 <1>         0.0317
     35 H10         1.7252    3.8897   -1.7134 H         1 <1>         0.1482
     36 H11         0.6870    2.7251   -3.6168 H         1 <1>         0.1439
     37 H12        -0.2453   -0.5862   -1.0918 H         1 <1>         0.1436
     38 H13         0.7995    0.5678    0.8144 H         1 <1>         0.1453
@<TRIPOS>BOND
     1    1    6 ar
     2    1    2 ar
     3    1   26 1
     4    2    3 ar
     5    2   27 1
     6    3    4 ar
     7    3   25 1
     8    4    5 ar
     9    4   28 1
    10    5    6 ar
    11    5   29 1
    12    6    7 1
    13    7   11 1
    14    7    8 2
    15    8    9 1
    16    8   30 1
    17    9   10 1
    18    9   18 1
    19   10   16 1
    20   10   11 2
    21   11   12 1
    22   12   13 2
    23   12   14 1
    24   13   31 1
    25   14   15 1
    26   14   17 1
    27   15   16 2
    28   15   32 1
    29   17   33 1
    30   17   34 1
    31   18   23 ar
    32   18   19 ar
    33   19   20 ar
    34   19   35 1
    35   20   21 ar
    36   20   36 1
    37   21   22 ar
    38   21   24 1
    39   22   23 ar
    40   22   37 1
    41   23   38 1
@<TRIPOS>Similarity
1.1426
@<TRIPOS>ShapeSim
0.6485
@<TRIPOS>PharmSim
0.4941
# END
# Name:		ZINC03852046
# Created and modified by SHAFTS on Mon Jun 23 14:53:19 2014

# 

@<TRIPOS>MOLECULE
ZINC03852046
   38    41     0
SMALL
USER_CHARGE


@<TRIPOS>ATOM
      1 C1          0.7795    4.8527    4.5574 C.ar      1 <1>        -0.0757
      2 C2          0.5641    5.2193    5.8700 C.ar      1 <1>        -0.0732
      3 C3          1.5127    4.9313    6.8364 C.ar      1 <1>        -0.0198
      4 C4          2.6863    4.2838    6.4899 C.ar      1 <1>        -0.0662
      5 C5          2.9139    3.9174    5.1791 C.ar      1 <1>        -0.0666
      6 C6          1.9596    4.2004    4.2031 C.ar      1 <1>        -0.0548
      7 C7          2.1987    3.8088    2.7932 C.2       1 <1>        -0.0174
      8 C8          1.3494    3.1236    1.9833 C.2       1 <1>        -0.0160
      9 N1          1.9284    2.9594    0.7547 N.pl3     1 <1>        -0.3045
     10 C9          3.1739    3.5255    0.7373 C.2       1 <1>         0.0438
     11 C10         3.3993    4.0780    1.9993 C.2       1 <1>         0.0575
     12 C11         4.6745    4.7530    2.2509 C.2       1 <1>         0.0024
     13 N2          4.9450    5.2923    3.4164 N.2       1 <1>        -0.4323
     14 N3          5.5818    4.7980    1.2068 N.pl3     1 <1>        -0.4551
     15 C12         5.2618    4.2270    0.0148 C.2       1 <1>         0.0264
     16 N4          4.1297    3.6290   -0.2038 N.2       1 <1>        -0.3379
     17 N5          6.7909    5.4116    1.3727 N.3       1 <1>         0.3833
     18 C13         1.3333    2.3004   -0.3294 C.ar      1 <1>        -0.0139
     19 C14         1.2955    2.9082   -1.5772 C.ar      1 <1>        -0.0460
     20 C15         0.7126    2.2546   -2.6450 C.ar      1 <1>        -0.0573
     21 C16         0.1567    0.9995   -2.4697 C.ar      1 <1>        -0.0084
     22 C17         0.1889    0.3936   -1.2260 C.ar      1 <1>        -0.0600
     23 C18         0.7752    1.0408   -0.1562 C.ar      1 <1>        -0.0492
     24 Cl1        -0.5816    0.1835   -3.8124 Cl        1 <1>        -0.1371
     25 Cl2         1.2326    5.3894    8.4872 Cl        1 <1>        -0.1508
     26 H1          0.0373    5.0746    3.8049 H         1 <1>         0.1312
     27 H2         -0.3480    5.7283    6.1448 H         1 <1>         0.1285
     28 H3          3.4251    4.0652    7.2467 H         1 <1>         0.1302
     29 H4          3.8299    3.4127    4.9098 H         1 <1>         0.1418
     30 H5          0.3699    2.7665    2.2648 H         1 <1>         0.2078
     31 H6          5.7963    5.7344    3.5604 H         1 <1>         0.2518
     32 H7          5.9830    4.2725   -0.7877 H         1 <1>         0.3054
     33 H8          7.4847    4.7592    1.7062 H         1 <1>         0.0193
     34 H9          7.0922    5.8540    0.5175 H         1 <1>         0.0317
     35 H10         1.7252    3.8897   -1.7134 H         1 <1>         0.1482
     36 H11         0.6870    2.7251   -3.6168 H         1 <1>         0.1439
     37 H12        -0.2453   -0.5862   -1.0918 H         1 <1>         0.1436
     38 H13         0.7995    0.5678    0.8144 H         1 <1>         0.1453
@<TRIPOS>BOND
     1    1    6 ar
     2    1    2 ar
     3    1   26 1
     4    2    3 ar
     5    2   27 1
     6    3    4 ar
     7    3   25 1
     8    4    5 ar
     9    4   28 1
    10    5    6 ar
    11    5   29 1
    12    6    7 1
    13    7   11 1
    14    7    8 2
    15    8    9 1
    16    8   30 1
    17    9   10 1
    18    9   18 1
    19   10   16 1
    20   10   11 2
    21   11   12 1
    22   12   13 2
    23   12   14 1
    24   13   31 1
    25   14   15 1
    26   14   17 1
    27   15   16 2
    28   15   32 1
    29   17   33 1
    30   17   34 1
    31   18   23 ar
    32   18   19 ar
    33   19   20 ar
    34   19   35 1
    35   20   21 ar
    36   20   36 1
    37   21   22 ar
    38   21   24 1
    39   22   23 ar
    40   22   37 1
    41   23   38 1
@<TRIPOS>Similarity
1.1426
@<TRIPOS>ShapeSim
0.6485
@<TRIPOS>PharmSim
0.4941
# END
# Name:		ZINC03852046
# Created and modified by SHAFTS on Mon Jun 23 14:53:19 2014

# 

@<TRIPOS>MOLECULE
ZINC03852046
   38    41     0
SMALL
USER_CHARGE


@<TRIPOS>ATOM
      1 C1          0.7795    4.8527    4.5574 C.ar      1 <1>        -0.0757
      2 C2          0.5641    5.2193    5.8700 C.ar      1 <1>        -0.0732
      3 C3          1.5127    4.9313    6.8364 C.ar      1 <1>        -0.0198
      4 C4          2.6863    4.2838    6.4899 C.ar      1 <1>        -0.0662
      5 C5          2.9139    3.9174    5.1791 C.ar      1 <1>        -0.0666
      6 C6          1.9596    4.2004    4.2031 C.ar      1 <1>        -0.0548
      7 C7          2.1987    3.8088    2.7932 C.2       1 <1>        -0.0174
      8 C8          1.3494    3.1236    1.9833 C.2       1 <1>        -0.0160
      9 N1          1.9284    2.9594    0.7547 N.pl3     1 <1>        -0.3045
     10 C9          3.1739    3.5255    0.7373 C.2       1 <1>         0.0438
     11 C10         3.3993    4.0780    1.9993 C.2       1 <1>         0.0575
     12 C11         4.6745    4.7530    2.2509 C.2       1 <1>         0.0024
     13 N2          4.9450    5.2923    3.4164 N.2       1 <1>        -0.4323
     14 N3          5.5818    4.7980    1.2068 N.pl3     1 <1>        -0.4551
     15 C12         5.2618    4.2270    0.0148 C.2       1 <1>         0.0264
     16 N4          4.1297    3.6290   -0.2038 N.2       1 <1>        -0.3379
     17 N5          6.7909    5.4116    1.3727 N.3       1 <1>         0.3833
     18 C13         1.3333    2.3004   -0.3294 C.ar      1 <1>        -0.0139
     19 C14         1.2955    2.9082   -1.5772 C.ar      1 <1>        -0.0460
     20 C15         0.7126    2.2546   -2.6450 C.ar      1 <1>        -0.0573
     21 C16         0.1567    0.9995   -2.4697 C.ar      1 <1>        -0.0084
     22 C17         0.1889    0.3936   -1.2260 C.ar      1 <1>        -0.0600
     23 C18         0.7752    1.0408   -0.1562 C.ar      1 <1>        -0.0492
     24 Cl1        -0.5816    0.1835   -3.8124 Cl        1 <1>        -0.1371
     25 Cl2         1.2326    5.3894    8.4872 Cl        1 <1>        -0.1508
     26 H1          0.0373    5.0746    3.8049 H         1 <1>         0.1312
     27 H2         -0.3480    5.7283    6.1448 H         1 <1>         0.1285
     28 H3          3.4251    4.0652    7.2467 H         1 <1>         0.1302
     29 H4          3.8299    3.4127    4.9098 H         1 <1>         0.1418
     30 H5          0.3699    2.7665    2.2648 H         1 <1>         0.2078
     31 H6          5.7963    5.7344    3.5604 H         1 <1>         0.2518
     32 H7          5.9830    4.2725   -0.7877 H         1 <1>         0.3054
     33 H8          7.4847    4.7592    1.7062 H         1 <1>         0.0193
     34 H9          7.0922    5.8540    0.5175 H         1 <1>         0.0317
     35 H10         1.7252    3.8897   -1.7134 H         1 <1>         0.1482
     36 H11         0.6870    2.7251   -3.6168 H         1 <1>         0.1439
     37 H12        -0.2453   -0.5862   -1.0918 H         1 <1>         0.1436
     38 H13         0.7995    0.5678    0.8144 H         1 <1>         0.1453
@<TRIPOS>BOND
     1    1    6 ar
     2    1    2 ar
     3    1   26 1
     4    2    3 ar
     5    2   27 1
     6    3    4 ar
     7    3   25 1
     8    4    5 ar
     9    4   28 1
    10    5    6 ar
    11    5   29 1
    12    6    7 1
    13    7   11 1
    14    7    8 2
    15    8    9 1
    16    8   30 1
    17    9   10 1
    18    9   18 1
    19   10   16 1
    20   10   11 2
    21   11   12 1
    22   12   13 2
    23   12   14 1
    24   13   31 1
    25   14   15 1
    26   14   17 1
    27   15   16 2
    28   15   32 1
    29   17   33 1
    30   17   34 1
    31   18   23 ar
    32   18   19 ar
    33   19   20 ar
    34   19   35 1
    35   20   21 ar
    36   20   36 1
    37   21   22 ar
    38   21   24 1
    39   22   23 ar
    40   22   37 1
    41   23   38 1
@<TRIPOS>Similarity
1.1426
@<TRIPOS>ShapeSim
0.6485
@<TRIPOS>PharmSim
0.4941
# END
# Name:		ZINC03852046
# Created and modified by SHAFTS on Mon Jun 23 14:53:19 2014

# 

@<TRIPOS>MOLECULE
ZINC03852046
   38    41     0
SMALL
USER_CHARGE


@<TRIPOS>ATOM
      1 C1          0.7795    4.8527    4.5574 C.ar      1 <1>        -0.0757
      2 C2          0.5641    5.2193    5.8700 C.ar      1 <1>        -0.0732
      3 C3          1.5127    4.9313    6.8364 C.ar      1 <1>        -0.0198
      4 C4          2.6863    4.2838    6.4899 C.ar      1 <1>        -0.0662
      5 C5          2.9139    3.9174    5.1791 C.ar      1 <1>        -0.0666
      6 C6          1.9596    4.2004    4.2031 C.ar      1 <1>        -0.0548
      7 C7          2.1987    3.8088    2.7932 C.2       1 <1>        -0.0174
      8 C8          1.3494    3.1236    1.9833 C.2       1 <1>        -0.0160
      9 N1          1.9284    2.9594    0.7547 N.pl3     1 <1>        -0.3045
     10 C9          3.1739    3.5255    0.7373 C.2       1 <1>         0.0438
     11 C10         3.3993    4.0780    1.9993 C.2       1 <1>         0.0575
     12 C11         4.6745    4.7530    2.2509 C.2       1 <1>         0.0024
     13 N2          4.9450    5.2923    3.4164 N.2       1 <1>        -0.4323
     14 N3          5.5818    4.7980    1.2068 N.pl3     1 <1>        -0.4551
     15 C12         5.2618    4.2270    0.0148 C.2       1 <1>         0.0264
     16 N4          4.1297    3.6290   -0.2038 N.2       1 <1>        -0.3379
     17 N5          6.7909    5.4116    1.3727 N.3       1 <1>         0.3833
     18 C13         1.3333    2.3004   -0.3294 C.ar      1 <1>        -0.0139
     19 C14         1.2955    2.9082   -1.5772 C.ar      1 <1>        -0.0460
     20 C15         0.7126    2.2546   -2.6450 C.ar      1 <1>        -0.0573
     21 C16         0.1567    0.9995   -2.4697 C.ar      1 <1>        -0.0084
     22 C17         0.1889    0.3936   -1.2260 C.ar      1 <1>        -0.0600
     23 C18         0.7752    1.0408   -0.1562 C.ar      1 <1>        -0.0492
     24 Cl1        -0.5816    0.1835   -3.8124 Cl        1 <1>        -0.1371
     25 Cl2         1.2326    5.3894    8.4872 Cl        1 <1>        -0.1508
     26 H1          0.0373    5.0746    3.8049 H         1 <1>         0.1312
     27 H2         -0.3480    5.7283    6.1448 H         1 <1>         0.1285
     28 H3          3.4251    4.0652    7.2467 H         1 <1>         0.1302
     29 H4          3.8299    3.4127    4.9098 H         1 <1>         0.1418
     30 H5          0.3699    2.7665    2.2648 H         1 <1>         0.2078
     31 H6          5.7963    5.7344    3.5604 H         1 <1>         0.2518
     32 H7          5.9830    4.2725   -0.7877 H         1 <1>         0.3054
     33 H8          7.4847    4.7592    1.7062 H         1 <1>         0.0193
     34 H9          7.0922    5.8540    0.5175 H         1 <1>         0.0317
     35 H10         1.7252    3.8897   -1.7134 H         1 <1>         0.1482
     36 H11         0.6870    2.7251   -3.6168 H         1 <1>         0.1439
     37 H12        -0.2453   -0.5862   -1.0918 H         1 <1>         0.1436
     38 H13         0.7995    0.5678    0.8144 H         1 <1>         0.1453
@<TRIPOS>BOND
     1    1    6 ar
     2    1    2 ar
     3    1   26 1
     4    2    3 ar
     5    2   27 1
     6    3    4 ar
     7    3   25 1
     8    4    5 ar
     9    4   28 1
    10    5    6 ar
    11    5   29 1
    12    6    7 1
    13    7   11 1
    14    7    8 2
    15    8    9 1
    16    8   30 1
    17    9   10 1
    18    9   18 1
    19   10   16 1
    20   10   11 2
    21   11   12 1
    22   12   13 2
    23   12   14 1
    24   13   31 1
    25   14   15 1
    26   14   17 1
    27   15   16 2
    28   15   32 1
    29   17   33 1
    30   17   34 1
    31   18   23 ar
    32   18   19 ar
    33   19   20 ar
    34   19   35 1
    35   20   21 ar
    36   20   36 1
    37   21   22 ar
    38   21   24 1
    39   22   23 ar
    40   22   37 1
    41   23   38 1
@<TRIPOS>Similarity
1.1426
@<TRIPOS>ShapeSim
0.6485
@<TRIPOS>PharmSim
0.4941
# END
# Name:		ZINC03852046
# Created and modified by SHAFTS on Mon Jun 23 14:53:19 2014

# 

@<TRIPOS>MOLECULE
ZINC03852046
   38    41     0
SMALL
USER_CHARGE


@<TRIPOS>ATOM
      1 C1          0.7795    4.8527    4.5574 C.ar      1 <1>        -0.0757
      2 C2          0.5641    5.2193    5.8700 C.ar      1 <1>        -0.0732
      3 C3          1.5127    4.9313    6.8364 C.ar      1 <1>        -0.0198
      4 C4          2.6863    4.2838    6.4899 C.ar      1 <1>        -0.0662
      5 C5          2.9139    3.9174    5.1791 C.ar      1 <1>        -0.0666
      6 C6          1.9596    4.2004    4.2031 C.ar      1 <1>        -0.0548
      7 C7          2.1987    3.8088    2.7932 C.2       1 <1>        -0.0174
      8 C8          1.3494    3.1236    1.9833 C.2       1 <1>        -0.0160
      9 N1          1.9284    2.9594    0.7547 N.pl3     1 <1>        -0.3045
     10 C9          3.1739    3.5255    0.7373 C.2       1 <1>         0.0438
     11 C10         3.3993    4.0780    1.9993 C.2       1 <1>         0.0575
     12 C11         4.6745    4.7530    2.2509 C.2       1 <1>         0.0024
     13 N2          4.9450    5.2923    3.4164 N.2       1 <1>        -0.4323
     14 N3          5.5818    4.7980    1.2068 N.pl3     1 <1>        -0.4551
     15 C12         5.2618    4.2270    0.0148 C.2       1 <1>         0.0264
     16 N4          4.1297    3.6290   -0.2038 N.2       1 <1>        -0.3379
     17 N5          6.7909    5.4116    1.3727 N.3       1 <1>         0.3833
     18 C13         1.3333    2.3004   -0.3294 C.ar      1 <1>        -0.0139
     19 C14         1.2955    2.9082   -1.5772 C.ar      1 <1>        -0.0460
     20 C15         0.7126    2.2546   -2.6450 C.ar      1 <1>        -0.0573
     21 C16         0.1567    0.9995   -2.4697 C.ar      1 <1>        -0.0084
     22 C17         0.1889    0.3936   -1.2260 C.ar      1 <1>        -0.0600
     23 C18         0.7752    1.0408   -0.1562 C.ar      1 <1>        -0.0492
     24 Cl1        -0.5816    0.1835   -3.8124 Cl        1 <1>        -0.1371
     25 Cl2         1.2326    5.3894    8.4872 Cl        1 <1>        -0.1508
     26 H1          0.0373    5.0746    3.8049 H         1 <1>         0.1312
     27 H2         -0.3480    5.7283    6.1448 H         1 <1>         0.1285
     28 H3          3.4251    4.0652    7.2467 H         1 <1>         0.1302
     29 H4          3.8299    3.4127    4.9098 H         1 <1>         0.1418
     30 H5          0.3699    2.7665    2.2648 H         1 <1>         0.2078
     31 H6          5.7963    5.7344    3.5604 H         1 <1>         0.2518
     32 H7          5.9830    4.2725   -0.7877 H         1 <1>         0.3054
     33 H8          7.4847    4.7592    1.7062 H         1 <1>         0.0193
     34 H9          7.0922    5.8540    0.5175 H         1 <1>         0.0317
     35 H10         1.7252    3.8897   -1.7134 H         1 <1>         0.1482
     36 H11         0.6870    2.7251   -3.6168 H         1 <1>         0.1439
     37 H12        -0.2453   -0.5862   -1.0918 H         1 <1>         0.1436
     38 H13         0.7995    0.5678    0.8144 H         1 <1>         0.1453
@<TRIPOS>BOND
     1    1    6 ar
     2    1    2 ar
     3    1   26 1
     4    2    3 ar
     5    2   27 1
     6    3    4 ar
     7    3   25 1
     8    4    5 ar
     9    4   28 1
    10    5    6 ar
    11    5   29 1
    12    6    7 1
    13    7   11 1
    14    7    8 2
    15    8    9 1
    16    8   30 1
    17    9   10 1
    18    9   18 1
    19   10   16 1
    20   10   11 2
    21   11   12 1
    22   12   13 2
    23   12   14 1
    24   13   31 1
    25   14   15 1
    26   14   17 1
    27   15   16 2
    28   15   32 1
    29   17   33 1
    30   17   34 1
    31   18   23 ar
    32   18   19 ar
    33   19   20 ar
    34   19   35 1
    35   20   21 ar
    36   20   36 1
    37   21   22 ar
    38   21   24 1
    39   22   23 ar
    40   22   37 1
    41   23   38 1
@<TRIPOS>Similarity
1.1426
@<TRIPOS>ShapeSim
0.6485
@<TRIPOS>PharmSim
0.4941
# END
# Name:		ZINC03852046
# Created and modified by SHAFTS on Mon Jun 23 14:53:19 2014

# 

@<TRIPOS>MOLECULE
ZINC03852046
   38    41     0
SMALL
USER_CHARGE


@<TRIPOS>ATOM
      1 C1          0.7795    4.8527    4.5574 C.ar      1 <1>        -0.0757
      2 C2          0.5641    5.2193    5.8700 C.ar      1 <1>        -0.0732
      3 C3          1.5127    4.9313    6.8364 C.ar      1 <1>        -0.0198
      4 C4          2.6863    4.2838    6.4899 C.ar      1 <1>        -0.0662
      5 C5          2.9139    3.9174    5.1791 C.ar      1 <1>        -0.0666
      6 C6          1.9596    4.2004    4.2031 C.ar      1 <1>        -0.0548
      7 C7          2.1987    3.8088    2.7932 C.2       1 <1>        -0.0174
      8 C8          1.3494    3.1236    1.9833 C.2       1 <1>        -0.0160
      9 N1          1.9284    2.9594    0.7547 N.pl3     1 <1>        -0.3045
     10 C9          3.1739    3.5255    0.7373 C.2       1 <1>         0.0438
     11 C10         3.3993    4.0780    1.9993 C.2       1 <1>         0.0575
     12 C11         4.6745    4.7530    2.2509 C.2       1 <1>         0.0024
     13 N2          4.9450    5.2923    3.4164 N.2       1 <1>        -0.4323
     14 N3          5.5818    4.7980    1.2068 N.pl3     1 <1>        -0.4551
     15 C12         5.2618    4.2270    0.0148 C.2       1 <1>         0.0264
     16 N4          4.1297    3.6290   -0.2038 N.2       1 <1>        -0.3379
     17 N5          6.7909    5.4116    1.3727 N.3       1 <1>         0.3833
     18 C13         1.3333    2.3004   -0.3294 C.ar      1 <1>        -0.0139
     19 C14         1.2955    2.9082   -1.5772 C.ar      1 <1>        -0.0460
     20 C15         0.7126    2.2546   -2.6450 C.ar      1 <1>        -0.0573
     21 C16         0.1567    0.9995   -2.4697 C.ar      1 <1>        -0.0084
     22 C17         0.1889    0.3936   -1.2260 C.ar      1 <1>        -0.0600
     23 C18         0.7752    1.0408   -0.1562 C.ar      1 <1>        -0.0492
     24 Cl1        -0.5816    0.1835   -3.8124 Cl        1 <1>        -0.1371
     25 Cl2         1.2326    5.3894    8.4872 Cl        1 <1>        -0.1508
     26 H1          0.0373    5.0746    3.8049 H         1 <1>         0.1312
     27 H2         -0.3480    5.7283    6.1448 H         1 <1>         0.1285
     28 H3          3.4251    4.0652    7.2467 H         1 <1>         0.1302
     29 H4          3.8299    3.4127    4.9098 H         1 <1>         0.1418
     30 H5          0.3699    2.7665    2.2648 H         1 <1>         0.2078
     31 H6          5.7963    5.7344    3.5604 H         1 <1>         0.2518
     32 H7          5.9830    4.2725   -0.7877 H         1 <1>         0.3054
     33 H8          7.4847    4.7592    1.7062 H         1 <1>         0.0193
     34 H9          7.0922    5.8540    0.5175 H         1 <1>         0.0317
     35 H10         1.7252    3.8897   -1.7134 H         1 <1>         0.1482
     36 H11         0.6870    2.7251   -3.6168 H         1 <1>         0.1439
     37 H12        -0.2453   -0.5862   -1.0918 H         1 <1>         0.1436
     38 H13         0.7995    0.5678    0.8144 H         1 <1>         0.1453
@<TRIPOS>BOND
     1    1    6 ar
     2    1    2 ar
     3    1   26 1
     4    2    3 ar
     5    2   27 1
     6    3    4 ar
     7    3   25 1
     8    4    5 ar
     9    4   28 1
    10    5    6 ar
    11    5   29 1
    12    6    7 1
    13    7   11 1
    14    7    8 2
    15    8    9 1
    16    8   30 1
    17    9   10 1
    18    9   18 1
    19   10   16 1
    20   10   11 2
    21   11   12 1
    22   12   13 2
    23   12   14 1
    24   13   31 1
    25   14   15 1
    26   14   17 1
    27   15   16 2
    28   15   32 1
    29   17   33 1
    30   17   34 1
    31   18   23 ar
    32   18   19 ar
    33   19   20 ar
    34   19   35 1
    35   20   21 ar
    36   20   36 1
    37   21   22 ar
    38   21   24 1
    39   22   23 ar
    40   22   37 1
    41   23   38 1
@<TRIPOS>Similarity
1.1426
@<TRIPOS>ShapeSim
0.6485
@<TRIPOS>PharmSim
0.4941
# END
# Name:		ZINC03852046
# Created and modified by SHAFTS on Mon Jun 23 14:53:19 2014

# 

@<TRIPOS>MOLECULE
ZINC03852046
   38    41     0
SMALL
USER_CHARGE


@<TRIPOS>ATOM
      1 C1          0.7795    4.8527    4.5574 C.ar      1 <1>        -0.0757
      2 C2          0.5641    5.2193    5.8700 C.ar      1 <1>        -0.0732
      3 C3          1.5127    4.9313    6.8364 C.ar      1 <1>        -0.0198
      4 C4          2.6863    4.2838    6.4899 C.ar      1 <1>        -0.0662
      5 C5          2.9139    3.9174    5.1791 C.ar      1 <1>        -0.0666
      6 C6          1.9596    4.2004    4.2031 C.ar      1 <1>        -0.0548
      7 C7          2.1987    3.8088    2.7932 C.2       1 <1>        -0.0174
      8 C8          1.3494    3.1236    1.9833 C.2       1 <1>        -0.0160
      9 N1          1.9284    2.9594    0.7547 N.pl3     1 <1>        -0.3045
     10 C9          3.1739    3.5255    0.7373 C.2       1 <1>         0.0438
     11 C10         3.3993    4.0780    1.9993 C.2       1 <1>         0.0575
     12 C11         4.6745    4.7530    2.2509 C.2       1 <1>         0.0024
     13 N2          4.9450    5.2923    3.4164 N.2       1 <1>        -0.4323
     14 N3          5.5818    4.7980    1.2068 N.pl3     1 <1>        -0.4551
     15 C12         5.2618    4.2270    0.0148 C.2       1 <1>         0.0264
     16 N4          4.1297    3.6290   -0.2038 N.2       1 <1>        -0.3379
     17 N5          6.7909    5.4116    1.3727 N.3       1 <1>         0.3833
     18 C13         1.3333    2.3004   -0.3294 C.ar      1 <1>        -0.0139
     19 C14         1.2955    2.9082   -1.5772 C.ar      1 <1>        -0.0460
     20 C15         0.7126    2.2546   -2.6450 C.ar      1 <1>        -0.0573
     21 C16         0.1567    0.9995   -2.4697 C.ar      1 <1>        -0.0084
     22 C17         0.1889    0.3936   -1.2260 C.ar      1 <1>        -0.0600
     23 C18         0.7752    1.0408   -0.1562 C.ar      1 <1>        -0.0492
     24 Cl1        -0.5816    0.1835   -3.8124 Cl        1 <1>        -0.1371
     25 Cl2         1.2326    5.3894    8.4872 Cl        1 <1>        -0.1508
     26 H1          0.0373    5.0746    3.8049 H         1 <1>         0.1312
     27 H2         -0.3480    5.7283    6.1448 H         1 <1>         0.1285
     28 H3          3.4251    4.0652    7.2467 H         1 <1>         0.1302
     29 H4          3.8299    3.4127    4.9098 H         1 <1>         0.1418
     30 H5          0.3699    2.7665    2.2648 H         1 <1>         0.2078
     31 H6          5.7963    5.7344    3.5604 H         1 <1>         0.2518
     32 H7          5.9830    4.2725   -0.7877 H         1 <1>         0.3054
     33 H8          7.4847    4.7592    1.7062 H         1 <1>         0.0193
     34 H9          7.0922    5.8540    0.5175 H         1 <1>         0.0317
     35 H10         1.7252    3.8897   -1.7134 H         1 <1>         0.1482
     36 H11         0.6870    2.7251   -3.6168 H         1 <1>         0.1439
     37 H12        -0.2453   -0.5862   -1.0918 H         1 <1>         0.1436
     38 H13         0.7995    0.5678    0.8144 H         1 <1>         0.1453
@<TRIPOS>BOND
     1    1    6 ar
     2    1    2 ar
     3    1   26 1
     4    2    3 ar
     5    2   27 1
     6    3    4 ar
     7    3   25 1
     8    4    5 ar
     9    4   28 1
    10    5    6 ar
    11    5   29 1
    12    6    7 1
    13    7   11 1
    14    7    8 2
    15    8    9 1
    16    8   30 1
    17    9   10 1
    18    9   18 1
    19   10   16 1
    20   10   11 2
    21   11   12 1
    22   12   13 2
    23   12   14 1
    24   13   31 1
    25   14   15 1
    26   14   17 1
    27   15   16 2
    28   15   32 1
    29   17   33 1
    30   17   34 1
    31   18   23 ar
    32   18   19 ar
    33   19   20 ar
    34   19   35 1
    35   20   21 ar
    36   20   36 1
    37   21   22 ar
    38   21   24 1
    39   22   23 ar
    40   22   37 1
    41   23   38 1
@<TRIPOS>Similarity
1.1426
@<TRIPOS>ShapeSim
0.6485
@<TRIPOS>PharmSim
0.4941
# END
# Name:		ZINC03852046
# Created and modified by SHAFTS on Mon Jun 23 14:53:19 2014

# 

@<TRIPOS>MOLECULE
ZINC03852046
   38    41     0
SMALL
USER_CHARGE


@<TRIPOS>ATOM
      1 C1          0.7795    4.8527    4.5574 C.ar      1 <1>        -0.0757
      2 C2          0.5641    5.2193    5.8700 C.ar      1 <1>        -0.0732
      3 C3          1.5127    4.9313    6.8364 C.ar      1 <1>        -0.0198
      4 C4          2.6863    4.2838    6.4899 C.ar      1 <1>        -0.0662
      5 C5          2.9139    3.9174    5.1791 C.ar      1 <1>        -0.0666
      6 C6          1.9596    4.2004    4.2031 C.ar      1 <1>        -0.0548
      7 C7          2.1987    3.8088    2.7932 C.2       1 <1>        -0.0174
      8 C8          1.3494    3.1236    1.9833 C.2       1 <1>        -0.0160
      9 N1          1.9284    2.9594    0.7547 N.pl3     1 <1>        -0.3045
     10 C9          3.1739    3.5255    0.7373 C.2       1 <1>         0.0438
     11 C10         3.3993    4.0780    1.9993 C.2       1 <1>         0.0575
     12 C11         4.6745    4.7530    2.2509 C.2       1 <1>         0.0024
     13 N2          4.9450    5.2923    3.4164 N.2       1 <1>        -0.4323
     14 N3          5.5818    4.7980    1.2068 N.pl3     1 <1>        -0.4551
     15 C12         5.2618    4.2270    0.0148 C.2       1 <1>         0.0264
     16 N4          4.1297    3.6290   -0.2038 N.2       1 <1>        -0.3379
     17 N5          6.7909    5.4116    1.3727 N.3       1 <1>         0.3833
     18 C13         1.3333    2.3004   -0.3294 C.ar      1 <1>        -0.0139
     19 C14         1.2955    2.9082   -1.5772 C.ar      1 <1>        -0.0460
     20 C15         0.7126    2.2546   -2.6450 C.ar      1 <1>        -0.0573
     21 C16         0.1567    0.9995   -2.4697 C.ar      1 <1>        -0.0084
     22 C17         0.1889    0.3936   -1.2260 C.ar      1 <1>        -0.0600
     23 C18         0.7752    1.0408   -0.1562 C.ar      1 <1>        -0.0492
     24 Cl1        -0.5816    0.1835   -3.8124 Cl        1 <1>        -0.1371
     25 Cl2         1.2326    5.3894    8.4872 Cl        1 <1>        -0.1508
     26 H1          0.0373    5.0746    3.8049 H         1 <1>         0.1312
     27 H2         -0.3480    5.7283    6.1448 H         1 <1>         0.1285
     28 H3          3.4251    4.0652    7.2467 H         1 <1>         0.1302
     29 H4          3.8299    3.4127    4.9098 H         1 <1>         0.1418
     30 H5          0.3699    2.7665    2.2648 H         1 <1>         0.2078
     31 H6          5.7963    5.7344    3.5604 H         1 <1>         0.2518
     32 H7          5.9830    4.2725   -0.7877 H         1 <1>         0.3054
     33 H8          7.4847    4.7592    1.7062 H         1 <1>         0.0193
     34 H9          7.0922    5.8540    0.5175 H         1 <1>         0.0317
     35 H10         1.7252    3.8897   -1.7134 H         1 <1>         0.1482
     36 H11         0.6870    2.7251   -3.6168 H         1 <1>         0.1439
     37 H12        -0.2453   -0.5862   -1.0918 H         1 <1>         0.1436
     38 H13         0.7995    0.5678    0.8144 H         1 <1>         0.1453
@<TRIPOS>BOND
     1    1    6 ar
     2    1    2 ar
     3    1   26 1
     4    2    3 ar
     5    2   27 1
     6    3    4 ar
     7    3   25 1
     8    4    5 ar
     9    4   28 1
    10    5    6 ar
    11    5   29 1
    12    6    7 1
    13    7   11 1
    14    7    8 2
    15    8    9 1
    16    8   30 1
    17    9   10 1
    18    9   18 1
    19   10   16 1
    20   10   11 2
    21   11   12 1
    22   12   13 2
    23   12   14 1
    24   13   31 1
    25   14   15 1
    26   14   17 1
    27   15   16 2
    28   15   32 1
    29   17   33 1
    30   17   34 1
    31   18   23 ar
    32   18   19 ar
    33   19   20 ar
    34   19   35 1
    35   20   21 ar
    36   20   36 1
    37   21   22 ar
    38   21   24 1
    39   22   23 ar
    40   22   37 1
    41   23   38 1
@<TRIPOS>Similarity
1.1426
@<TRIPOS>ShapeSim
0.6485
@<TRIPOS>PharmSim
0.4941
# END
# Name:		ZINC03852046
# Created and modified by SHAFTS on Mon Jun 23 14:53:19 2014

# 

@<TRIPOS>MOLECULE
ZINC03852046
   38    41     0
SMALL
USER_CHARGE


@<TRIPOS>ATOM
      1 C1          0.7795    4.8527    4.5574 C.ar      1 <1>        -0.0757
      2 C2          0.5641    5.2193    5.8700 C.ar      1 <1>        -0.0732
      3 C3          1.5127    4.9313    6.8364 C.ar      1 <1>        -0.0198
      4 C4          2.6863    4.2838    6.4899 C.ar      1 <1>        -0.0662
      5 C5          2.9139    3.9174    5.1791 C.ar      1 <1>        -0.0666
      6 C6          1.9596    4.2004    4.2031 C.ar      1 <1>        -0.0548
      7 C7          2.1987    3.8088    2.7932 C.2       1 <1>        -0.0174
      8 C8          1.3494    3.1236    1.9833 C.2       1 <1>        -0.0160
      9 N1          1.9284    2.9594    0.7547 N.pl3     1 <1>        -0.3045
     10 C9          3.1739    3.5255    0.7373 C.2       1 <1>         0.0438
     11 C10         3.3993    4.0780    1.9993 C.2       1 <1>         0.0575
     12 C11         4.6745    4.7530    2.2509 C.2       1 <1>         0.0024
     13 N2          4.9450    5.2923    3.4164 N.2       1 <1>        -0.4323
     14 N3          5.5818    4.7980    1.2068 N.pl3     1 <1>        -0.4551
     15 C12         5.2618    4.2270    0.0148 C.2       1 <1>         0.0264
     16 N4          4.1297    3.6290   -0.2038 N.2       1 <1>        -0.3379
     17 N5          6.7909    5.4116    1.3727 N.3       1 <1>         0.3833
     18 C13         1.3333    2.3004   -0.3294 C.ar      1 <1>        -0.0139
     19 C14         1.2955    2.9082   -1.5772 C.ar      1 <1>        -0.0460
     20 C15         0.7126    2.2546   -2.6450 C.ar      1 <1>        -0.0573
     21 C16         0.1567    0.9995   -2.4697 C.ar      1 <1>        -0.0084
     22 C17         0.1889    0.3936   -1.2260 C.ar      1 <1>        -0.0600
     23 C18         0.7752    1.0408   -0.1562 C.ar      1 <1>        -0.0492
     24 Cl1        -0.5816    0.1835   -3.8124 Cl        1 <1>        -0.1371
     25 Cl2         1.2326    5.3894    8.4872 Cl        1 <1>        -0.1508
     26 H1          0.0373    5.0746    3.8049 H         1 <1>         0.1312
     27 H2         -0.3480    5.7283    6.1448 H         1 <1>         0.1285
     28 H3          3.4251    4.0652    7.2467 H         1 <1>         0.1302
     29 H4          3.8299    3.4127    4.9098 H         1 <1>         0.1418
     30 H5          0.3699    2.7665    2.2648 H         1 <1>         0.2078
     31 H6          5.7963    5.7344    3.5604 H         1 <1>         0.2518
     32 H7          5.9830    4.2725   -0.7877 H         1 <1>         0.3054
     33 H8          7.4847    4.7592    1.7062 H         1 <1>         0.0193
     34 H9          7.0922    5.8540    0.5175 H         1 <1>         0.0317
     35 H10         1.7252    3.8897   -1.7134 H         1 <1>         0.1482
     36 H11         0.6870    2.7251   -3.6168 H         1 <1>         0.1439
     37 H12        -0.2453   -0.5862   -1.0918 H         1 <1>         0.1436
     38 H13         0.7995    0.5678    0.8144 H         1 <1>         0.1453
@<TRIPOS>BOND
     1    1    6 ar
     2    1    2 ar
     3    1   26 1
     4    2    3 ar
     5    2   27 1
     6    3    4 ar
     7    3   25 1
     8    4    5 ar
     9    4   28 1
    10    5    6 ar
    11    5   29 1
    12    6    7 1
    13    7   11 1
    14    7    8 2
    15    8    9 1
    16    8   30 1
    17    9   10 1
    18    9   18 1
    19   10   16 1
    20   10   11 2
    21   11   12 1
    22   12   13 2
    23   12   14 1
    24   13   31 1
    25   14   15 1
    26   14   17 1
    27   15   16 2
    28   15   32 1
    29   17   33 1
    30   17   34 1
    31   18   23 ar
    32   18   19 ar
    33   19   20 ar
    34   19   35 1
    35   20   21 ar
    36   20   36 1
    37   21   22 ar
    38   21   24 1
    39   22   23 ar
    40   22   37 1
    41   23   38 1
@<TRIPOS>Similarity
1.1426
@<TRIPOS>ShapeSim
0.6485
@<TRIPOS>PharmSim
0.4941
# END
# Name:		ZINC03852046
# Created and modified by SHAFTS on Mon Jun 23 14:53:19 2014

# 

@<TRIPOS>MOLECULE
ZINC03852046
   38    41     0
SMALL
USER_CHARGE


@<TRIPOS>ATOM
      1 C1          0.7795    4.8527    4.5574 C.ar      1 <1>        -0.0757
      2 C2          0.5641    5.2193    5.8700 C.ar      1 <1>        -0.0732
      3 C3          1.5127    4.9313    6.8364 C.ar      1 <1>        -0.0198
      4 C4          2.6863    4.2838    6.4899 C.ar      1 <1>        -0.0662
      5 C5          2.9139    3.9174    5.1791 C.ar      1 <1>        -0.0666
      6 C6          1.9596    4.2004    4.2031 C.ar      1 <1>        -0.0548
      7 C7          2.1987    3.8088    2.7932 C.2       1 <1>        -0.0174
      8 C8          1.3494    3.1236    1.9833 C.2       1 <1>        -0.0160
      9 N1          1.9284    2.9594    0.7547 N.pl3     1 <1>        -0.3045
     10 C9          3.1739    3.5255    0.7373 C.2       1 <1>         0.0438
     11 C10         3.3993    4.0780    1.9993 C.2       1 <1>         0.0575
     12 C11         4.6745    4.7530    2.2509 C.2       1 <1>         0.0024
     13 N2          4.9450    5.2923    3.4164 N.2       1 <1>        -0.4323
     14 N3          5.5818    4.7980    1.2068 N.pl3     1 <1>        -0.4551
     15 C12         5.2618    4.2270    0.0148 C.2       1 <1>         0.0264
     16 N4          4.1297    3.6290   -0.2038 N.2       1 <1>        -0.3379
     17 N5          6.7909    5.4116    1.3727 N.3       1 <1>         0.3833
     18 C13         1.3333    2.3004   -0.3294 C.ar      1 <1>        -0.0139
     19 C14         1.2955    2.9082   -1.5772 C.ar      1 <1>        -0.0460
     20 C15         0.7126    2.2546   -2.6450 C.ar      1 <1>        -0.0573
     21 C16         0.1567    0.9995   -2.4697 C.ar      1 <1>        -0.0084
     22 C17         0.1889    0.3936   -1.2260 C.ar      1 <1>        -0.0600
     23 C18         0.7752    1.0408   -0.1562 C.ar      1 <1>        -0.0492
     24 Cl1        -0.5816    0.1835   -3.8124 Cl        1 <1>        -0.1371
     25 Cl2         1.2326    5.3894    8.4872 Cl        1 <1>        -0.1508
     26 H1          0.0373    5.0746    3.8049 H         1 <1>         0.1312
     27 H2         -0.3480    5.7283    6.1448 H         1 <1>         0.1285
     28 H3          3.4251    4.0652    7.2467 H         1 <1>         0.1302
     29 H4          3.8299    3.4127    4.9098 H         1 <1>         0.1418
     30 H5          0.3699    2.7665    2.2648 H         1 <1>         0.2078
     31 H6          5.7963    5.7344    3.5604 H         1 <1>         0.2518
     32 H7          5.9830    4.2725   -0.7877 H         1 <1>         0.3054
     33 H8          7.4847    4.7592    1.7062 H         1 <1>         0.0193
     34 H9          7.0922    5.8540    0.5175 H         1 <1>         0.0317
     35 H10         1.7252    3.8897   -1.7134 H         1 <1>         0.1482
     36 H11         0.6870    2.7251   -3.6168 H         1 <1>         0.1439
     37 H12        -0.2453   -0.5862   -1.0918 H         1 <1>         0.1436
     38 H13         0.7995    0.5678    0.8144 H         1 <1>         0.1453
@<TRIPOS>BOND
     1    1    6 ar
     2    1    2 ar
     3    1   26 1
     4    2    3 ar
     5    2   27 1
     6    3    4 ar
     7    3   25 1
     8    4    5 ar
     9    4   28 1
    10    5    6 ar
    11    5   29 1
    12    6    7 1
    13    7   11 1
    14    7    8 2
    15    8    9 1
    16    8   30 1
    17    9   10 1
    18    9   18 1
    19   10   16 1
    20   10   11 2
    21   11   12 1
    22   12   13 2
    23   12   14 1
    24   13   31 1
    25   14   15 1
    26   14   17 1
    27   15   16 2
    28   15   32 1
    29   17   33 1
    30   17   34 1
    31   18   23 ar
    32   18   19 ar
    33   19   20 ar
    34   19   35 1
    35   20   21 ar
    36   20   36 1
    37   21   22 ar
    38   21   24 1
    39   22   23 ar
    40   22   37 1
    41   23   38 1
@<TRIPOS>Similarity
1.1426
@<TRIPOS>ShapeSim
0.6485
@<TRIPOS>PharmSim
0.4941
# END
# Name:		ZINC03852046
# Created and modified by SHAFTS on Mon Jun 23 14:53:19 2014

# 

@<TRIPOS>MOLECULE
ZINC03852046
   38    41     0
SMALL
USER_CHARGE


@<TRIPOS>ATOM
      1 C1          0.7795    4.8527    4.5574 C.ar      1 <1>        -0.0757
      2 C2          0.5641    5.2193    5.8700 C.ar      1 <1>        -0.0732
      3 C3          1.5127    4.9313    6.8364 C.ar      1 <1>        -0.0198
      4 C4          2.6863    4.2838    6.4899 C.ar      1 <1>        -0.0662
      5 C5          2.9139    3.9174    5.1791 C.ar      1 <1>        -0.0666
      6 C6          1.9596    4.2004    4.2031 C.ar      1 <1>        -0.0548
      7 C7          2.1987    3.8088    2.7932 C.2       1 <1>        -0.0174
      8 C8          1.3494    3.1236    1.9833 C.2       1 <1>        -0.0160
      9 N1          1.9284    2.9594    0.7547 N.pl3     1 <1>        -0.3045
     10 C9          3.1739    3.5255    0.7373 C.2       1 <1>         0.0438
     11 C10         3.3993    4.0780    1.9993 C.2       1 <1>         0.0575
     12 C11         4.6745    4.7530    2.2509 C.2       1 <1>         0.0024
     13 N2          4.9450    5.2923    3.4164 N.2       1 <1>        -0.4323
     14 N3          5.5818    4.7980    1.2068 N.pl3     1 <1>        -0.4551
     15 C12         5.2618    4.2270    0.0148 C.2       1 <1>         0.0264
     16 N4          4.1297    3.6290   -0.2038 N.2       1 <1>        -0.3379
     17 N5          6.7909    5.4116    1.3727 N.3       1 <1>         0.3833
     18 C13         1.3333    2.3004   -0.3294 C.ar      1 <1>        -0.0139
     19 C14         1.2955    2.9082   -1.5772 C.ar      1 <1>        -0.0460
     20 C15         0.7126    2.2546   -2.6450 C.ar      1 <1>        -0.0573
     21 C16         0.1567    0.9995   -2.4697 C.ar      1 <1>        -0.0084
     22 C17         0.1889    0.3936   -1.2260 C.ar      1 <1>        -0.0600
     23 C18         0.7752    1.0408   -0.1562 C.ar      1 <1>        -0.0492
     24 Cl1        -0.5816    0.1835   -3.8124 Cl        1 <1>        -0.1371
     25 Cl2         1.2326    5.3894    8.4872 Cl        1 <1>        -0.1508
     26 H1          0.0373    5.0746    3.8049 H         1 <1>         0.1312
     27 H2         -0.3480    5.7283    6.1448 H         1 <1>         0.1285
     28 H3          3.4251    4.0652    7.2467 H         1 <1>         0.1302
     29 H4          3.8299    3.4127    4.9098 H         1 <1>         0.1418
     30 H5          0.3699    2.7665    2.2648 H         1 <1>         0.2078
     31 H6          5.7963    5.7344    3.5604 H         1 <1>         0.2518
     32 H7          5.9830    4.2725   -0.7877 H         1 <1>         0.3054
     33 H8          7.4847    4.7592    1.7062 H         1 <1>         0.0193
     34 H9          7.0922    5.8540    0.5175 H         1 <1>         0.0317
     35 H10         1.7252    3.8897   -1.7134 H         1 <1>         0.1482
     36 H11         0.6870    2.7251   -3.6168 H         1 <1>         0.1439
     37 H12        -0.2453   -0.5862   -1.0918 H         1 <1>         0.1436
     38 H13         0.7995    0.5678    0.8144 H         1 <1>         0.1453
@<TRIPOS>BOND
     1    1    6 ar
     2    1    2 ar
     3    1   26 1
     4    2    3 ar
     5    2   27 1
     6    3    4 ar
     7    3   25 1
     8    4    5 ar
     9    4   28 1
    10    5    6 ar
    11    5   29 1
    12    6    7 1
    13    7   11 1
    14    7    8 2
    15    8    9 1
    16    8   30 1
    17    9   10 1
    18    9   18 1
    19   10   16 1
    20   10   11 2
    21   11   12 1
    22   12   13 2
    23   12   14 1
    24   13   31 1
    25   14   15 1
    26   14   17 1
    27   15   16 2
    28   15   32 1
    29   17   33 1
    30   17   34 1
    31   18   23 ar
    32   18   19 ar
    33   19   20 ar
    34   19   35 1
    35   20   21 ar
    36   20   36 1
    37   21   22 ar
    38   21   24 1
    39   22   23 ar
    40   22   37 1
    41   23   38 1
@<TRIPOS>Similarity
1.1426
@<TRIPOS>ShapeSim
0.6485
@<TRIPOS>PharmSim
0.4941
# END
# Name:		ZINC03852046
# Created and modified by SHAFTS on Mon Jun 23 14:53:19 2014

# 

@<TRIPOS>MOLECULE
ZINC03852046
   38    41     0
SMALL
USER_CHARGE


@<TRIPOS>ATOM
      1 C1          0.7795    4.8527    4.5574 C.ar      1 <1>        -0.0757
      2 C2          0.5641    5.2193    5.8700 C.ar      1 <1>        -0.0732
      3 C3          1.5127    4.9313    6.8364 C.ar      1 <1>        -0.0198
      4 C4          2.6863    4.2838    6.4899 C.ar      1 <1>        -0.0662
      5 C5          2.9139    3.9174    5.1791 C.ar      1 <1>        -0.0666
      6 C6          1.9596    4.2004    4.2031 C.ar      1 <1>        -0.0548
      7 C7          2.1987    3.8088    2.7932 C.2       1 <1>        -0.0174
      8 C8          1.3494    3.1236    1.9833 C.2       1 <1>        -0.0160
      9 N1          1.9284    2.9594    0.7547 N.pl3     1 <1>        -0.3045
     10 C9          3.1739    3.5255    0.7373 C.2       1 <1>         0.0438
     11 C10         3.3993    4.0780    1.9993 C.2       1 <1>         0.0575
     12 C11         4.6745    4.7530    2.2509 C.2       1 <1>         0.0024
     13 N2          4.9450    5.2923    3.4164 N.2       1 <1>        -0.4323
     14 N3          5.5818    4.7980    1.2068 N.pl3     1 <1>        -0.4551
     15 C12         5.2618    4.2270    0.0148 C.2       1 <1>         0.0264
     16 N4          4.1297    3.6290   -0.2038 N.2       1 <1>        -0.3379
     17 N5          6.7909    5.4116    1.3727 N.3       1 <1>         0.3833
     18 C13         1.3333    2.3004   -0.3294 C.ar      1 <1>        -0.0139
     19 C14         1.2955    2.9082   -1.5772 C.ar      1 <1>        -0.0460
     20 C15         0.7126    2.2546   -2.6450 C.ar      1 <1>        -0.0573
     21 C16         0.1567    0.9995   -2.4697 C.ar      1 <1>        -0.0084
     22 C17         0.1889    0.3936   -1.2260 C.ar      1 <1>        -0.0600
     23 C18         0.7752    1.0408   -0.1562 C.ar      1 <1>        -0.0492
     24 Cl1        -0.5816    0.1835   -3.8124 Cl        1 <1>        -0.1371
     25 Cl2         1.2326    5.3894    8.4872 Cl        1 <1>        -0.1508
     26 H1          0.0373    5.0746    3.8049 H         1 <1>         0.1312
     27 H2         -0.3480    5.7283    6.1448 H         1 <1>         0.1285
     28 H3          3.4251    4.0652    7.2467 H         1 <1>         0.1302
     29 H4          3.8299    3.4127    4.9098 H         1 <1>         0.1418
     30 H5          0.3699    2.7665    2.2648 H         1 <1>         0.2078
     31 H6          5.7963    5.7344    3.5604 H         1 <1>         0.2518
     32 H7          5.9830    4.2725   -0.7877 H         1 <1>         0.3054
     33 H8          7.4847    4.7592    1.7062 H         1 <1>         0.0193
     34 H9          7.0922    5.8540    0.5175 H         1 <1>         0.0317
     35 H10         1.7252    3.8897   -1.7134 H         1 <1>         0.1482
     36 H11         0.6870    2.7251   -3.6168 H         1 <1>         0.1439
     37 H12        -0.2453   -0.5862   -1.0918 H         1 <1>         0.1436
     38 H13         0.7995    0.5678    0.8144 H         1 <1>         0.1453
@<TRIPOS>BOND
     1    1    6 ar
     2    1    2 ar
     3    1   26 1
     4    2    3 ar
     5    2   27 1
     6    3    4 ar
     7    3   25 1
     8    4    5 ar
     9    4   28 1
    10    5    6 ar
    11    5   29 1
    12    6    7 1
    13    7   11 1
    14    7    8 2
    15    8    9 1
    16    8   30 1
    17    9   10 1
    18    9   18 1
    19   10   16 1
    20   10   11 2
    21   11   12 1
    22   12   13 2
    23   12   14 1
    24   13   31 1
    25   14   15 1
    26   14   17 1
    27   15   16 2
    28   15   32 1
    29   17   33 1
    30   17   34 1
    31   18   23 ar
    32   18   19 ar
    33   19   20 ar
    34   19   35 1
    35   20   21 ar
    36   20   36 1
    37   21   22 ar
    38   21   24 1
    39   22   23 ar
    40   22   37 1
    41   23   38 1
@<TRIPOS>Similarity
1.1426
@<TRIPOS>ShapeSim
0.6485
@<TRIPOS>PharmSim
0.4941
# END
# Name:		ZINC03852046
# Created and modified by SHAFTS on Mon Jun 23 14:53:19 2014

# 

@<TRIPOS>MOLECULE
ZINC03852046
   38    41     0
SMALL
USER_CHARGE


@<TRIPOS>ATOM
      1 C1          0.7795    4.8527    4.5574 C.ar      1 <1>        -0.0757
      2 C2          0.5641    5.2193    5.8700 C.ar      1 <1>        -0.0732
      3 C3          1.5127    4.9313    6.8364 C.ar      1 <1>        -0.0198
      4 C4          2.6863    4.2838    6.4899 C.ar      1 <1>        -0.0662
      5 C5          2.9139    3.9174    5.1791 C.ar      1 <1>        -0.0666
      6 C6          1.9596    4.2004    4.2031 C.ar      1 <1>        -0.0548
      7 C7          2.1987    3.8088    2.7932 C.2       1 <1>        -0.0174
      8 C8          1.3494    3.1236    1.9833 C.2       1 <1>        -0.0160
      9 N1          1.9284    2.9594    0.7547 N.pl3     1 <1>        -0.3045
     10 C9          3.1739    3.5255    0.7373 C.2       1 <1>         0.0438
     11 C10         3.3993    4.0780    1.9993 C.2       1 <1>         0.0575
     12 C11         4.6745    4.7530    2.2509 C.2       1 <1>         0.0024
     13 N2          4.9450    5.2923    3.4164 N.2       1 <1>        -0.4323
     14 N3          5.5818    4.7980    1.2068 N.pl3     1 <1>        -0.4551
     15 C12         5.2618    4.2270    0.0148 C.2       1 <1>         0.0264
     16 N4          4.1297    3.6290   -0.2038 N.2       1 <1>        -0.3379
     17 N5          6.7909    5.4116    1.3727 N.3       1 <1>         0.3833
     18 C13         1.3333    2.3004   -0.3294 C.ar      1 <1>        -0.0139
     19 C14         1.2955    2.9082   -1.5772 C.ar      1 <1>        -0.0460
     20 C15         0.7126    2.2546   -2.6450 C.ar      1 <1>        -0.0573
     21 C16         0.1567    0.9995   -2.4697 C.ar      1 <1>        -0.0084
     22 C17         0.1889    0.3936   -1.2260 C.ar      1 <1>        -0.0600
     23 C18         0.7752    1.0408   -0.1562 C.ar      1 <1>        -0.0492
     24 Cl1        -0.5816    0.1835   -3.8124 Cl        1 <1>        -0.1371
     25 Cl2         1.2326    5.3894    8.4872 Cl        1 <1>        -0.1508
     26 H1          0.0373    5.0746    3.8049 H         1 <1>         0.1312
     27 H2         -0.3480    5.7283    6.1448 H         1 <1>         0.1285
     28 H3          3.4251    4.0652    7.2467 H         1 <1>         0.1302
     29 H4          3.8299    3.4127    4.9098 H         1 <1>         0.1418
     30 H5          0.3699    2.7665    2.2648 H         1 <1>         0.2078
     31 H6          5.7963    5.7344    3.5604 H         1 <1>         0.2518
     32 H7          5.9830    4.2725   -0.7877 H         1 <1>         0.3054
     33 H8          7.4847    4.7592    1.7062 H         1 <1>         0.0193
     34 H9          7.0922    5.8540    0.5175 H         1 <1>         0.0317
     35 H10         1.7252    3.8897   -1.7134 H         1 <1>         0.1482
     36 H11         0.6870    2.7251   -3.6168 H         1 <1>         0.1439
     37 H12        -0.2453   -0.5862   -1.0918 H         1 <1>         0.1436
     38 H13         0.7995    0.5678    0.8144 H         1 <1>         0.1453
@<TRIPOS>BOND
     1    1    6 ar
     2    1    2 ar
     3    1   26 1
     4    2    3 ar
     5    2   27 1
     6    3    4 ar
     7    3   25 1
     8    4    5 ar
     9    4   28 1
    10    5    6 ar
    11    5   29 1
    12    6    7 1
    13    7   11 1
    14    7    8 2
    15    8    9 1
    16    8   30 1
    17    9   10 1
    18    9   18 1
    19   10   16 1
    20   10   11 2
    21   11   12 1
    22   12   13 2
    23   12   14 1
    24   13   31 1
    25   14   15 1
    26   14   17 1
    27   15   16 2
    28   15   32 1
    29   17   33 1
    30   17   34 1
    31   18   23 ar
    32   18   19 ar
    33   19   20 ar
    34   19   35 1
    35   20   21 ar
    36   20   36 1
    37   21   22 ar
    38   21   24 1
    39   22   23 ar
    40   22   37 1
    41   23   38 1
@<TRIPOS>Similarity
1.1426
@<TRIPOS>ShapeSim
0.6485
@<TRIPOS>PharmSim
0.4941
# END
# Name:		ZINC03852046
# Created and modified by SHAFTS on Mon Jun 23 14:53:19 2014

# 

@<TRIPOS>MOLECULE
ZINC03852046
   38    41     0
SMALL
USER_CHARGE


@<TRIPOS>ATOM
      1 C1          0.7795    4.8527    4.5574 C.ar      1 <1>        -0.0757
      2 C2          0.5641    5.2193    5.8700 C.ar      1 <1>        -0.0732
      3 C3          1.5127    4.9313    6.8364 C.ar      1 <1>        -0.0198
      4 C4          2.6863    4.2838    6.4899 C.ar      1 <1>        -0.0662
      5 C5          2.9139    3.9174    5.1791 C.ar      1 <1>        -0.0666
      6 C6          1.9596    4.2004    4.2031 C.ar      1 <1>        -0.0548
      7 C7          2.1987    3.8088    2.7932 C.2       1 <1>        -0.0174
      8 C8          1.3494    3.1236    1.9833 C.2       1 <1>        -0.0160
      9 N1          1.9284    2.9594    0.7547 N.pl3     1 <1>        -0.3045
     10 C9          3.1739    3.5255    0.7373 C.2       1 <1>         0.0438
     11 C10         3.3993    4.0780    1.9993 C.2       1 <1>         0.0575
     12 C11         4.6745    4.7530    2.2509 C.2       1 <1>         0.0024
     13 N2          4.9450    5.2923    3.4164 N.2       1 <1>        -0.4323
     14 N3          5.5818    4.7980    1.2068 N.pl3     1 <1>        -0.4551
     15 C12         5.2618    4.2270    0.0148 C.2       1 <1>         0.0264
     16 N4          4.1297    3.6290   -0.2038 N.2       1 <1>        -0.3379
     17 N5          6.7909    5.4116    1.3727 N.3       1 <1>         0.3833
     18 C13         1.3333    2.3004   -0.3294 C.ar      1 <1>        -0.0139
     19 C14         1.2955    2.9082   -1.5772 C.ar      1 <1>        -0.0460
     20 C15         0.7126    2.2546   -2.6450 C.ar      1 <1>        -0.0573
     21 C16         0.1567    0.9995   -2.4697 C.ar      1 <1>        -0.0084
     22 C17         0.1889    0.3936   -1.2260 C.ar      1 <1>        -0.0600
     23 C18         0.7752    1.0408   -0.1562 C.ar      1 <1>        -0.0492
     24 Cl1        -0.5816    0.1835   -3.8124 Cl        1 <1>        -0.1371
     25 Cl2         1.2326    5.3894    8.4872 Cl        1 <1>        -0.1508
     26 H1          0.0373    5.0746    3.8049 H         1 <1>         0.1312
     27 H2         -0.3480    5.7283    6.1448 H         1 <1>         0.1285
     28 H3          3.4251    4.0652    7.2467 H         1 <1>         0.1302
     29 H4          3.8299    3.4127    4.9098 H         1 <1>         0.1418
     30 H5          0.3699    2.7665    2.2648 H         1 <1>         0.2078
     31 H6          5.7963    5.7344    3.5604 H         1 <1>         0.2518
     32 H7          5.9830    4.2725   -0.7877 H         1 <1>         0.3054
     33 H8          7.4847    4.7592    1.7062 H         1 <1>         0.0193
     34 H9          7.0922    5.8540    0.5175 H         1 <1>         0.0317
     35 H10         1.7252    3.8897   -1.7134 H         1 <1>         0.1482
     36 H11         0.6870    2.7251   -3.6168 H         1 <1>         0.1439
     37 H12        -0.2453   -0.5862   -1.0918 H         1 <1>         0.1436
     38 H13         0.7995    0.5678    0.8144 H         1 <1>         0.1453
@<TRIPOS>BOND
     1    1    6 ar
     2    1    2 ar
     3    1   26 1
     4    2    3 ar
     5    2   27 1
     6    3    4 ar
     7    3   25 1
     8    4    5 ar
     9    4   28 1
    10    5    6 ar
    11    5   29 1
    12    6    7 1
    13    7   11 1
    14    7    8 2
    15    8    9 1
    16    8   30 1
    17    9   10 1
    18    9   18 1
    19   10   16 1
    20   10   11 2
    21   11   12 1
    22   12   13 2
    23   12   14 1
    24   13   31 1
    25   14   15 1
    26   14   17 1
    27   15   16 2
    28   15   32 1
    29   17   33 1
    30   17   34 1
    31   18   23 ar
    32   18   19 ar
    33   19   20 ar
    34   19   35 1
    35   20   21 ar
    36   20   36 1
    37   21   22 ar
    38   21   24 1
    39   22   23 ar
    40   22   37 1
    41   23   38 1
@<TRIPOS>Similarity
1.1426
@<TRIPOS>ShapeSim
0.6485
@<TRIPOS>PharmSim
0.4941
# END
# Name:		ZINC03852046
# Created and modified by SHAFTS on Mon Jun 23 14:53:19 2014

# 

@<TRIPOS>MOLECULE
ZINC03852046
   38    41     0
SMALL
USER_CHARGE


@<TRIPOS>ATOM
      1 C1          0.7795    4.8527    4.5574 C.ar      1 <1>        -0.0757
      2 C2          0.5641    5.2193    5.8700 C.ar      1 <1>        -0.0732
      3 C3          1.5127    4.9313    6.8364 C.ar      1 <1>        -0.0198
      4 C4          2.6863    4.2838    6.4899 C.ar      1 <1>        -0.0662
      5 C5          2.9139    3.9174    5.1791 C.ar      1 <1>        -0.0666
      6 C6          1.9596    4.2004    4.2031 C.ar      1 <1>        -0.0548
      7 C7          2.1987    3.8088    2.7932 C.2       1 <1>        -0.0174
      8 C8          1.3494    3.1236    1.9833 C.2       1 <1>        -0.0160
      9 N1          1.9284    2.9594    0.7547 N.pl3     1 <1>        -0.3045
     10 C9          3.1739    3.5255    0.7373 C.2       1 <1>         0.0438
     11 C10         3.3993    4.0780    1.9993 C.2       1 <1>         0.0575
     12 C11         4.6745    4.7530    2.2509 C.2       1 <1>         0.0024
     13 N2          4.9450    5.2923    3.4164 N.2       1 <1>        -0.4323
     14 N3          5.5818    4.7980    1.2068 N.pl3     1 <1>        -0.4551
     15 C12         5.2618    4.2270    0.0148 C.2       1 <1>         0.0264
     16 N4          4.1297    3.6290   -0.2038 N.2       1 <1>        -0.3379
     17 N5          6.7909    5.4116    1.3727 N.3       1 <1>         0.3833
     18 C13         1.3333    2.3004   -0.3294 C.ar      1 <1>        -0.0139
     19 C14         1.2955    2.9082   -1.5772 C.ar      1 <1>        -0.0460
     20 C15         0.7126    2.2546   -2.6450 C.ar      1 <1>        -0.0573
     21 C16         0.1567    0.9995   -2.4697 C.ar      1 <1>        -0.0084
     22 C17         0.1889    0.3936   -1.2260 C.ar      1 <1>        -0.0600
     23 C18         0.7752    1.0408   -0.1562 C.ar      1 <1>        -0.0492
     24 Cl1        -0.5816    0.1835   -3.8124 Cl        1 <1>        -0.1371
     25 Cl2         1.2326    5.3894    8.4872 Cl        1 <1>        -0.1508
     26 H1          0.0373    5.0746    3.8049 H         1 <1>         0.1312
     27 H2         -0.3480    5.7283    6.1448 H         1 <1>         0.1285
     28 H3          3.4251    4.0652    7.2467 H         1 <1>         0.1302
     29 H4          3.8299    3.4127    4.9098 H         1 <1>         0.1418
     30 H5          0.3699    2.7665    2.2648 H         1 <1>         0.2078
     31 H6          5.7963    5.7344    3.5604 H         1 <1>         0.2518
     32 H7          5.9830    4.2725   -0.7877 H         1 <1>         0.3054
     33 H8          7.4847    4.7592    1.7062 H         1 <1>         0.0193
     34 H9          7.0922    5.8540    0.5175 H         1 <1>         0.0317
     35 H10         1.7252    3.8897   -1.7134 H         1 <1>         0.1482
     36 H11         0.6870    2.7251   -3.6168 H         1 <1>         0.1439
     37 H12        -0.2453   -0.5862   -1.0918 H         1 <1>         0.1436
     38 H13         0.7995    0.5678    0.8144 H         1 <1>         0.1453
@<TRIPOS>BOND
     1    1    6 ar
     2    1    2 ar
     3    1   26 1
     4    2    3 ar
     5    2   27 1
     6    3    4 ar
     7    3   25 1
     8    4    5 ar
     9    4   28 1
    10    5    6 ar
    11    5   29 1
    12    6    7 1
    13    7   11 1
    14    7    8 2
    15    8    9 1
    16    8   30 1
    17    9   10 1
    18    9   18 1
    19   10   16 1
    20   10   11 2
    21   11   12 1
    22   12   13 2
    23   12   14 1
    24   13   31 1
    25   14   15 1
    26   14   17 1
    27   15   16 2
    28   15   32 1
    29   17   33 1
    30   17   34 1
    31   18   23 ar
    32   18   19 ar
    33   19   20 ar
    34   19   35 1
    35   20   21 ar
    36   20   36 1
    37   21   22 ar
    38   21   24 1
    39   22   23 ar
    40   22   37 1
    41   23   38 1
@<TRIPOS>Similarity
1.1426
@<TRIPOS>ShapeSim
0.6485
@<TRIPOS>PharmSim
0.4941
# END
# Name:		ZINC03852042
# Created and modified by SHAFTS on Mon Jun 23 14:53:19 2014

# 

@<TRIPOS>MOLECULE
ZINC03852042
   46    49     0
SMALL
USER_CHARGE


@<TRIPOS>ATOM
      1 C1          2.3168    4.9716    9.0753 C.3       1 <1>         0.0215
      2 O1          1.2944    5.2933    8.1301 O.3       1 <1>        -0.4212
      3 C2          1.5136    4.9343    6.8377 C.ar      1 <1>        -0.0183
      4 C3          0.5604    5.2172    5.8691 C.ar      1 <1>        -0.0599
      5 C4          0.7797    4.8537    4.5567 C.ar      1 <1>        -0.0765
      6 C5          1.9600    4.2014    4.2036 C.ar      1 <1>        -0.0594
      7 C6          2.9128    3.9136    5.1798 C.ar      1 <1>        -0.0767
      8 C7          2.6899    4.2849    6.4894 C.ar      1 <1>        -0.0651
      9 C8          2.1991    3.8092    2.7936 C.2       1 <1>        -0.0225
     10 C9          1.3472    3.1294    1.9820 C.2       1 <1>        -0.0188
     11 N1          1.9286    2.9600    0.7548 N.pl3     1 <1>        -0.3087
     12 C10         3.1740    3.5252    0.7375 C.2       1 <1>         0.0420
     13 C11         3.3995    4.0783    1.9996 C.2       1 <1>         0.0556
     14 C12         4.6747    4.7529    2.2511 C.2       1 <1>         0.0012
     15 N2          4.9477    5.2872    3.4182 N.2       1 <1>        -0.4336
     16 N3          5.5820    4.7978    1.2068 N.pl3     1 <1>        -0.4564
     17 C13         5.2618    4.2268    0.0148 C.2       1 <1>         0.0248
     18 N4          4.1296    3.6290   -0.2038 N.2       1 <1>        -0.3388
     19 N5          6.7912    5.4112    1.3726 N.3       1 <1>         0.3827
     20 C14         1.3328    2.3003   -0.3299 C.ar      1 <1>        -0.0195
     21 C15         1.2962    2.9085   -1.5775 C.ar      1 <1>        -0.0567
     22 C16         0.7139    2.2565   -2.6463 C.ar      1 <1>        -0.0563
     23 C17         0.1565    0.9982   -2.4714 C.ar      1 <1>        -0.0089
     24 C18         0.1882    0.3921   -1.2238 C.ar      1 <1>        -0.0462
     25 C19         0.7745    1.0412   -0.1554 C.ar      1 <1>        -0.0503
     26 O2         -0.4214    0.3588   -3.5229 O.3       1 <1>        -0.4166
     27 C20        -0.4183    1.0413   -4.7783 C.3       1 <1>         0.0244
     28 H1          2.4686    3.8924    9.0928 H         1 <1>         0.0875
     29 H2          3.2455    5.4645    8.7878 H         1 <1>         0.0880
     30 H3          2.0160    5.3124   10.0659 H         1 <1>         0.1192
     31 H4         -0.3539    5.7223    6.1434 H         1 <1>         0.1232
     32 H5          0.0376    5.0740    3.8036 H         1 <1>         0.1331
     33 H6          3.8260    3.4041    4.9103 H         1 <1>         0.1382
     34 H7          3.4297    4.0664    7.2453 H         1 <1>         0.1089
     35 H8          0.3651    2.7778    2.2617 H         1 <1>         0.2046
     36 H9          5.8007    5.7257    3.5633 H         1 <1>         0.2492
     37 H10         5.9830    4.2723   -0.7878 H         1 <1>         0.3023
     38 H11         7.4850    4.7588    1.7061 H         1 <1>         0.0180
     39 H12         7.0925    5.8536    0.5173 H         1 <1>         0.0306
     40 H13         1.7265    3.8898   -1.7128 H         1 <1>         0.1446
     41 H14         0.6886    2.7279   -3.6176 H         1 <1>         0.1218
     42 H15        -0.2462   -0.5873   -1.0882 H         1 <1>         0.1387
     43 H16         0.7984    0.5696    0.8160 H         1 <1>         0.1476
     44 H17        -0.9536    1.9857   -4.6797 H         1 <1>         0.0900
     45 H18         0.6098    1.2365   -5.0834 H         1 <1>         0.0900
     46 H19        -0.9089    0.4224   -5.5296 H         1 <1>         0.1230
@<TRIPOS>BOND
     1    1    2 1
     2    1   28 1
     3    1   29 1
     4    1   30 1
     5    2    3 1
     6    3    8 ar
     7    3    4 ar
     8    4    5 ar
     9    4   31 1
    10    5    6 ar
    11    5   32 1
    12    6    7 ar
    13    6    9 1
    14    7    8 ar
    15    7   33 1
    16    8   34 1
    17    9   13 1
    18    9   10 2
    19   10   11 1
    20   10   35 1
    21   11   12 1
    22   11   20 1
    23   12   18 1
    24   12   13 2
    25   13   14 1
    26   14   15 2
    27   14   16 1
    28   15   36 1
    29   16   17 1
    30   16   19 1
    31   17   18 2
    32   17   37 1
    33   19   38 1
    34   19   39 1
    35   20   25 ar
    36   20   21 ar
    37   21   22 ar
    38   21   40 1
    39   22   23 ar
    40   22   41 1
    41   23   24 ar
    42   23   26 1
    43   24   25 ar
    44   24   42 1
    45   25   43 1
    46   26   27 1
    47   27   44 1
    48   27   45 1
    49   27   46 1
@<TRIPOS>Similarity
1.1367
@<TRIPOS>ShapeSim
0.6308
@<TRIPOS>PharmSim
0.5059
# END
# Name:		ZINC03852042
# Created and modified by SHAFTS on Mon Jun 23 14:53:19 2014

# 

@<TRIPOS>MOLECULE
ZINC03852042
   46    49     0
SMALL
USER_CHARGE


@<TRIPOS>ATOM
      1 C1          2.3168    4.9716    9.0753 C.3       1 <1>         0.0215
      2 O1          1.2944    5.2933    8.1301 O.3       1 <1>        -0.4212
      3 C2          1.5136    4.9343    6.8377 C.ar      1 <1>        -0.0183
      4 C3          0.5604    5.2172    5.8691 C.ar      1 <1>        -0.0599
      5 C4          0.7797    4.8537    4.5567 C.ar      1 <1>        -0.0765
      6 C5          1.9600    4.2014    4.2036 C.ar      1 <1>        -0.0594
      7 C6          2.9128    3.9136    5.1798 C.ar      1 <1>        -0.0767
      8 C7          2.6899    4.2849    6.4894 C.ar      1 <1>        -0.0651
      9 C8          2.1991    3.8092    2.7936 C.2       1 <1>        -0.0225
     10 C9          1.3472    3.1294    1.9820 C.2       1 <1>        -0.0188
     11 N1          1.9286    2.9600    0.7548 N.pl3     1 <1>        -0.3087
     12 C10         3.1740    3.5252    0.7375 C.2       1 <1>         0.0420
     13 C11         3.3995    4.0783    1.9996 C.2       1 <1>         0.0556
     14 C12         4.6747    4.7529    2.2511 C.2       1 <1>         0.0012
     15 N2          4.9477    5.2872    3.4182 N.2       1 <1>        -0.4336
     16 N3          5.5820    4.7978    1.2068 N.pl3     1 <1>        -0.4564
     17 C13         5.2618    4.2268    0.0148 C.2       1 <1>         0.0248
     18 N4          4.1296    3.6290   -0.2038 N.2       1 <1>        -0.3388
     19 N5          6.7912    5.4112    1.3726 N.3       1 <1>         0.3827
     20 C14         1.3328    2.3003   -0.3299 C.ar      1 <1>        -0.0195
     21 C15         1.2962    2.9085   -1.5775 C.ar      1 <1>        -0.0567
     22 C16         0.7139    2.2565   -2.6463 C.ar      1 <1>        -0.0563
     23 C17         0.1565    0.9982   -2.4714 C.ar      1 <1>        -0.0089
     24 C18         0.1882    0.3921   -1.2238 C.ar      1 <1>        -0.0462
     25 C19         0.7745    1.0412   -0.1554 C.ar      1 <1>        -0.0503
     26 O2         -0.4214    0.3588   -3.5229 O.3       1 <1>        -0.4166
     27 C20        -0.4183    1.0413   -4.7783 C.3       1 <1>         0.0244
     28 H1          2.4686    3.8924    9.0928 H         1 <1>         0.0875
     29 H2          3.2455    5.4645    8.7878 H         1 <1>         0.0880
     30 H3          2.0160    5.3124   10.0659 H         1 <1>         0.1192
     31 H4         -0.3539    5.7223    6.1434 H         1 <1>         0.1232
     32 H5          0.0376    5.0740    3.8036 H         1 <1>         0.1331
     33 H6          3.8260    3.4041    4.9103 H         1 <1>         0.1382
     34 H7          3.4297    4.0664    7.2453 H         1 <1>         0.1089
     35 H8          0.3651    2.7778    2.2617 H         1 <1>         0.2046
     36 H9          5.8007    5.7257    3.5633 H         1 <1>         0.2492
     37 H10         5.9830    4.2723   -0.7878 H         1 <1>         0.3023
     38 H11         7.4850    4.7588    1.7061 H         1 <1>         0.0180
     39 H12         7.0925    5.8536    0.5173 H         1 <1>         0.0306
     40 H13         1.7265    3.8898   -1.7128 H         1 <1>         0.1446
     41 H14         0.6886    2.7279   -3.6176 H         1 <1>         0.1218
     42 H15        -0.2462   -0.5873   -1.0882 H         1 <1>         0.1387
     43 H16         0.7984    0.5696    0.8160 H         1 <1>         0.1476
     44 H17        -0.9536    1.9857   -4.6797 H         1 <1>         0.0900
     45 H18         0.6098    1.2365   -5.0834 H         1 <1>         0.0900
     46 H19        -0.9089    0.4224   -5.5296 H         1 <1>         0.1230
@<TRIPOS>BOND
     1    1    2 1
     2    1   28 1
     3    1   29 1
     4    1   30 1
     5    2    3 1
     6    3    8 ar
     7    3    4 ar
     8    4    5 ar
     9    4   31 1
    10    5    6 ar
    11    5   32 1
    12    6    7 ar
    13    6    9 1
    14    7    8 ar
    15    7   33 1
    16    8   34 1
    17    9   13 1
    18    9   10 2
    19   10   11 1
    20   10   35 1
    21   11   12 1
    22   11   20 1
    23   12   18 1
    24   12   13 2
    25   13   14 1
    26   14   15 2
    27   14   16 1
    28   15   36 1
    29   16   17 1
    30   16   19 1
    31   17   18 2
    32   17   37 1
    33   19   38 1
    34   19   39 1
    35   20   25 ar
    36   20   21 ar
    37   21   22 ar
    38   21   40 1
    39   22   23 ar
    40   22   41 1
    41   23   24 ar
    42   23   26 1
    43   24   25 ar
    44   24   42 1
    45   25   43 1
    46   26   27 1
    47   27   44 1
    48   27   45 1
    49   27   46 1
@<TRIPOS>Similarity
1.1367
@<TRIPOS>ShapeSim
0.6308
@<TRIPOS>PharmSim
0.5059
# END
# Name:		ZINC03852042
# Created and modified by SHAFTS on Mon Jun 23 14:53:19 2014

# 

@<TRIPOS>MOLECULE
ZINC03852042
   46    49     0
SMALL
USER_CHARGE


@<TRIPOS>ATOM
      1 C1          2.3168    4.9716    9.0753 C.3       1 <1>         0.0215
      2 O1          1.2944    5.2933    8.1301 O.3       1 <1>        -0.4212
      3 C2          1.5136    4.9343    6.8377 C.ar      1 <1>        -0.0183
      4 C3          0.5604    5.2172    5.8691 C.ar      1 <1>        -0.0599
      5 C4          0.7797    4.8537    4.5567 C.ar      1 <1>        -0.0765
      6 C5          1.9600    4.2014    4.2036 C.ar      1 <1>        -0.0594
      7 C6          2.9128    3.9136    5.1798 C.ar      1 <1>        -0.0767
      8 C7          2.6899    4.2849    6.4894 C.ar      1 <1>        -0.0651
      9 C8          2.1991    3.8092    2.7936 C.2       1 <1>        -0.0225
     10 C9          1.3472    3.1294    1.9820 C.2       1 <1>        -0.0188
     11 N1          1.9286    2.9600    0.7548 N.pl3     1 <1>        -0.3087
     12 C10         3.1740    3.5252    0.7375 C.2       1 <1>         0.0420
     13 C11         3.3995    4.0783    1.9996 C.2       1 <1>         0.0556
     14 C12         4.6747    4.7529    2.2511 C.2       1 <1>         0.0012
     15 N2          4.9477    5.2872    3.4182 N.2       1 <1>        -0.4336
     16 N3          5.5820    4.7978    1.2068 N.pl3     1 <1>        -0.4564
     17 C13         5.2618    4.2268    0.0148 C.2       1 <1>         0.0248
     18 N4          4.1296    3.6290   -0.2038 N.2       1 <1>        -0.3388
     19 N5          6.7912    5.4112    1.3726 N.3       1 <1>         0.3827
     20 C14         1.3328    2.3003   -0.3299 C.ar      1 <1>        -0.0195
     21 C15         1.2962    2.9085   -1.5775 C.ar      1 <1>        -0.0567
     22 C16         0.7139    2.2565   -2.6463 C.ar      1 <1>        -0.0563
     23 C17         0.1565    0.9982   -2.4714 C.ar      1 <1>        -0.0089
     24 C18         0.1882    0.3921   -1.2238 C.ar      1 <1>        -0.0462
     25 C19         0.7745    1.0412   -0.1554 C.ar      1 <1>        -0.0503
     26 O2         -0.4214    0.3588   -3.5229 O.3       1 <1>        -0.4166
     27 C20        -0.4183    1.0413   -4.7783 C.3       1 <1>         0.0244
     28 H1          2.4686    3.8924    9.0928 H         1 <1>         0.0875
     29 H2          3.2455    5.4645    8.7878 H         1 <1>         0.0880
     30 H3          2.0160    5.3124   10.0659 H         1 <1>         0.1192
     31 H4         -0.3539    5.7223    6.1434 H         1 <1>         0.1232
     32 H5          0.0376    5.0740    3.8036 H         1 <1>         0.1331
     33 H6          3.8260    3.4041    4.9103 H         1 <1>         0.1382
     34 H7          3.4297    4.0664    7.2453 H         1 <1>         0.1089
     35 H8          0.3651    2.7778    2.2617 H         1 <1>         0.2046
     36 H9          5.8007    5.7257    3.5633 H         1 <1>         0.2492
     37 H10         5.9830    4.2723   -0.7878 H         1 <1>         0.3023
     38 H11         7.4850    4.7588    1.7061 H         1 <1>         0.0180
     39 H12         7.0925    5.8536    0.5173 H         1 <1>         0.0306
     40 H13         1.7265    3.8898   -1.7128 H         1 <1>         0.1446
     41 H14         0.6886    2.7279   -3.6176 H         1 <1>         0.1218
     42 H15        -0.2462   -0.5873   -1.0882 H         1 <1>         0.1387
     43 H16         0.7984    0.5696    0.8160 H         1 <1>         0.1476
     44 H17        -0.9536    1.9857   -4.6797 H         1 <1>         0.0900
     45 H18         0.6098    1.2365   -5.0834 H         1 <1>         0.0900
     46 H19        -0.9089    0.4224   -5.5296 H         1 <1>         0.1230
@<TRIPOS>BOND
     1    1    2 1
     2    1   28 1
     3    1   29 1
     4    1   30 1
     5    2    3 1
     6    3    8 ar
     7    3    4 ar
     8    4    5 ar
     9    4   31 1
    10    5    6 ar
    11    5   32 1
    12    6    7 ar
    13    6    9 1
    14    7    8 ar
    15    7   33 1
    16    8   34 1
    17    9   13 1
    18    9   10 2
    19   10   11 1
    20   10   35 1
    21   11   12 1
    22   11   20 1
    23   12   18 1
    24   12   13 2
    25   13   14 1
    26   14   15 2
    27   14   16 1
    28   15   36 1
    29   16   17 1
    30   16   19 1
    31   17   18 2
    32   17   37 1
    33   19   38 1
    34   19   39 1
    35   20   25 ar
    36   20   21 ar
    37   21   22 ar
    38   21   40 1
    39   22   23 ar
    40   22   41 1
    41   23   24 ar
    42   23   26 1
    43   24   25 ar
    44   24   42 1
    45   25   43 1
    46   26   27 1
    47   27   44 1
    48   27   45 1
    49   27   46 1
@<TRIPOS>Similarity
1.1367
@<TRIPOS>ShapeSim
0.6308
@<TRIPOS>PharmSim
0.5059
# END
# Name:		ZINC03852042
# Created and modified by SHAFTS on Mon Jun 23 14:53:19 2014

# 

@<TRIPOS>MOLECULE
ZINC03852042
   46    49     0
SMALL
USER_CHARGE


@<TRIPOS>ATOM
      1 C1          2.3168    4.9716    9.0753 C.3       1 <1>         0.0215
      2 O1          1.2944    5.2933    8.1301 O.3       1 <1>        -0.4212
      3 C2          1.5136    4.9343    6.8377 C.ar      1 <1>        -0.0183
      4 C3          0.5604    5.2172    5.8691 C.ar      1 <1>        -0.0599
      5 C4          0.7797    4.8537    4.5567 C.ar      1 <1>        -0.0765
      6 C5          1.9600    4.2014    4.2036 C.ar      1 <1>        -0.0594
      7 C6          2.9128    3.9136    5.1798 C.ar      1 <1>        -0.0767
      8 C7          2.6899    4.2849    6.4894 C.ar      1 <1>        -0.0651
      9 C8          2.1991    3.8092    2.7936 C.2       1 <1>        -0.0225
     10 C9          1.3472    3.1294    1.9820 C.2       1 <1>        -0.0188
     11 N1          1.9286    2.9600    0.7548 N.pl3     1 <1>        -0.3087
     12 C10         3.1740    3.5252    0.7375 C.2       1 <1>         0.0420
     13 C11         3.3995    4.0783    1.9996 C.2       1 <1>         0.0556
     14 C12         4.6747    4.7529    2.2511 C.2       1 <1>         0.0012
     15 N2          4.9477    5.2872    3.4182 N.2       1 <1>        -0.4336
     16 N3          5.5820    4.7978    1.2068 N.pl3     1 <1>        -0.4564
     17 C13         5.2618    4.2268    0.0148 C.2       1 <1>         0.0248
     18 N4          4.1296    3.6290   -0.2038 N.2       1 <1>        -0.3388
     19 N5          6.7912    5.4112    1.3726 N.3       1 <1>         0.3827
     20 C14         1.3328    2.3003   -0.3299 C.ar      1 <1>        -0.0195
     21 C15         1.2962    2.9085   -1.5775 C.ar      1 <1>        -0.0567
     22 C16         0.7139    2.2565   -2.6463 C.ar      1 <1>        -0.0563
     23 C17         0.1565    0.9982   -2.4714 C.ar      1 <1>        -0.0089
     24 C18         0.1882    0.3921   -1.2238 C.ar      1 <1>        -0.0462
     25 C19         0.7745    1.0412   -0.1554 C.ar      1 <1>        -0.0503
     26 O2         -0.4214    0.3588   -3.5229 O.3       1 <1>        -0.4166
     27 C20        -0.4183    1.0413   -4.7783 C.3       1 <1>         0.0244
     28 H1          2.4686    3.8924    9.0928 H         1 <1>         0.0875
     29 H2          3.2455    5.4645    8.7878 H         1 <1>         0.0880
     30 H3          2.0160    5.3124   10.0659 H         1 <1>         0.1192
     31 H4         -0.3539    5.7223    6.1434 H         1 <1>         0.1232
     32 H5          0.0376    5.0740    3.8036 H         1 <1>         0.1331
     33 H6          3.8260    3.4041    4.9103 H         1 <1>         0.1382
     34 H7          3.4297    4.0664    7.2453 H         1 <1>         0.1089
     35 H8          0.3651    2.7778    2.2617 H         1 <1>         0.2046
     36 H9          5.8007    5.7257    3.5633 H         1 <1>         0.2492
     37 H10         5.9830    4.2723   -0.7878 H         1 <1>         0.3023
     38 H11         7.4850    4.7588    1.7061 H         1 <1>         0.0180
     39 H12         7.0925    5.8536    0.5173 H         1 <1>         0.0306
     40 H13         1.7265    3.8898   -1.7128 H         1 <1>         0.1446
     41 H14         0.6886    2.7279   -3.6176 H         1 <1>         0.1218
     42 H15        -0.2462   -0.5873   -1.0882 H         1 <1>         0.1387
     43 H16         0.7984    0.5696    0.8160 H         1 <1>         0.1476
     44 H17        -0.9536    1.9857   -4.6797 H         1 <1>         0.0900
     45 H18         0.6098    1.2365   -5.0834 H         1 <1>         0.0900
     46 H19        -0.9089    0.4224   -5.5296 H         1 <1>         0.1230
@<TRIPOS>BOND
     1    1    2 1
     2    1   28 1
     3    1   29 1
     4    1   30 1
     5    2    3 1
     6    3    8 ar
     7    3    4 ar
     8    4    5 ar
     9    4   31 1
    10    5    6 ar
    11    5   32 1
    12    6    7 ar
    13    6    9 1
    14    7    8 ar
    15    7   33 1
    16    8   34 1
    17    9   13 1
    18    9   10 2
    19   10   11 1
    20   10   35 1
    21   11   12 1
    22   11   20 1
    23   12   18 1
    24   12   13 2
    25   13   14 1
    26   14   15 2
    27   14   16 1
    28   15   36 1
    29   16   17 1
    30   16   19 1
    31   17   18 2
    32   17   37 1
    33   19   38 1
    34   19   39 1
    35   20   25 ar
    36   20   21 ar
    37   21   22 ar
    38   21   40 1
    39   22   23 ar
    40   22   41 1
    41   23   24 ar
    42   23   26 1
    43   24   25 ar
    44   24   42 1
    45   25   43 1
    46   26   27 1
    47   27   44 1
    48   27   45 1
    49   27   46 1
@<TRIPOS>Similarity
1.1367
@<TRIPOS>ShapeSim
0.6308
@<TRIPOS>PharmSim
0.5059
# END
# Name:		ZINC03852042
# Created and modified by SHAFTS on Mon Jun 23 14:53:19 2014

# 

@<TRIPOS>MOLECULE
ZINC03852042
   46    49     0
SMALL
USER_CHARGE


@<TRIPOS>ATOM
      1 C1          2.3168    4.9716    9.0753 C.3       1 <1>         0.0215
      2 O1          1.2944    5.2933    8.1301 O.3       1 <1>        -0.4212
      3 C2          1.5136    4.9343    6.8377 C.ar      1 <1>        -0.0183
      4 C3          0.5604    5.2172    5.8691 C.ar      1 <1>        -0.0599
      5 C4          0.7797    4.8537    4.5567 C.ar      1 <1>        -0.0765
      6 C5          1.9600    4.2014    4.2036 C.ar      1 <1>        -0.0594
      7 C6          2.9128    3.9136    5.1798 C.ar      1 <1>        -0.0767
      8 C7          2.6899    4.2849    6.4894 C.ar      1 <1>        -0.0651
      9 C8          2.1991    3.8092    2.7936 C.2       1 <1>        -0.0225
     10 C9          1.3472    3.1294    1.9820 C.2       1 <1>        -0.0188
     11 N1          1.9286    2.9600    0.7548 N.pl3     1 <1>        -0.3087
     12 C10         3.1740    3.5252    0.7375 C.2       1 <1>         0.0420
     13 C11         3.3995    4.0783    1.9996 C.2       1 <1>         0.0556
     14 C12         4.6747    4.7529    2.2511 C.2       1 <1>         0.0012
     15 N2          4.9477    5.2872    3.4182 N.2       1 <1>        -0.4336
     16 N3          5.5820    4.7978    1.2068 N.pl3     1 <1>        -0.4564
     17 C13         5.2618    4.2268    0.0148 C.2       1 <1>         0.0248
     18 N4          4.1296    3.6290   -0.2038 N.2       1 <1>        -0.3388
     19 N5          6.7912    5.4112    1.3726 N.3       1 <1>         0.3827
     20 C14         1.3328    2.3003   -0.3299 C.ar      1 <1>        -0.0195
     21 C15         1.2962    2.9085   -1.5775 C.ar      1 <1>        -0.0567
     22 C16         0.7139    2.2565   -2.6463 C.ar      1 <1>        -0.0563
     23 C17         0.1565    0.9982   -2.4714 C.ar      1 <1>        -0.0089
     24 C18         0.1882    0.3921   -1.2238 C.ar      1 <1>        -0.0462
     25 C19         0.7745    1.0412   -0.1554 C.ar      1 <1>        -0.0503
     26 O2         -0.4214    0.3588   -3.5229 O.3       1 <1>        -0.4166
     27 C20        -0.4183    1.0413   -4.7783 C.3       1 <1>         0.0244
     28 H1          2.4686    3.8924    9.0928 H         1 <1>         0.0875
     29 H2          3.2455    5.4645    8.7878 H         1 <1>         0.0880
     30 H3          2.0160    5.3124   10.0659 H         1 <1>         0.1192
     31 H4         -0.3539    5.7223    6.1434 H         1 <1>         0.1232
     32 H5          0.0376    5.0740    3.8036 H         1 <1>         0.1331
     33 H6          3.8260    3.4041    4.9103 H         1 <1>         0.1382
     34 H7          3.4297    4.0664    7.2453 H         1 <1>         0.1089
     35 H8          0.3651    2.7778    2.2617 H         1 <1>         0.2046
     36 H9          5.8007    5.7257    3.5633 H         1 <1>         0.2492
     37 H10         5.9830    4.2723   -0.7878 H         1 <1>         0.3023
     38 H11         7.4850    4.7588    1.7061 H         1 <1>         0.0180
     39 H12         7.0925    5.8536    0.5173 H         1 <1>         0.0306
     40 H13         1.7265    3.8898   -1.7128 H         1 <1>         0.1446
     41 H14         0.6886    2.7279   -3.6176 H         1 <1>         0.1218
     42 H15        -0.2462   -0.5873   -1.0882 H         1 <1>         0.1387
     43 H16         0.7984    0.5696    0.8160 H         1 <1>         0.1476
     44 H17        -0.9536    1.9857   -4.6797 H         1 <1>         0.0900
     45 H18         0.6098    1.2365   -5.0834 H         1 <1>         0.0900
     46 H19        -0.9089    0.4224   -5.5296 H         1 <1>         0.1230
@<TRIPOS>BOND
     1    1    2 1
     2    1   28 1
     3    1   29 1
     4    1   30 1
     5    2    3 1
     6    3    8 ar
     7    3    4 ar
     8    4    5 ar
     9    4   31 1
    10    5    6 ar
    11    5   32 1
    12    6    7 ar
    13    6    9 1
    14    7    8 ar
    15    7   33 1
    16    8   34 1
    17    9   13 1
    18    9   10 2
    19   10   11 1
    20   10   35 1
    21   11   12 1
    22   11   20 1
    23   12   18 1
    24   12   13 2
    25   13   14 1
    26   14   15 2
    27   14   16 1
    28   15   36 1
    29   16   17 1
    30   16   19 1
    31   17   18 2
    32   17   37 1
    33   19   38 1
    34   19   39 1
    35   20   25 ar
    36   20   21 ar
    37   21   22 ar
    38   21   40 1
    39   22   23 ar
    40   22   41 1
    41   23   24 ar
    42   23   26 1
    43   24   25 ar
    44   24   42 1
    45   25   43 1
    46   26   27 1
    47   27   44 1
    48   27   45 1
    49   27   46 1
@<TRIPOS>Similarity
1.1367
@<TRIPOS>ShapeSim
0.6308
@<TRIPOS>PharmSim
0.5059
# END
# Name:		ZINC03852042
# Created and modified by SHAFTS on Mon Jun 23 14:53:19 2014

# 

@<TRIPOS>MOLECULE
ZINC03852042
   46    49     0
SMALL
USER_CHARGE


@<TRIPOS>ATOM
      1 C1          2.3168    4.9716    9.0753 C.3       1 <1>         0.0215
      2 O1          1.2944    5.2933    8.1301 O.3       1 <1>        -0.4212
      3 C2          1.5136    4.9343    6.8377 C.ar      1 <1>        -0.0183
      4 C3          0.5604    5.2172    5.8691 C.ar      1 <1>        -0.0599
      5 C4          0.7797    4.8537    4.5567 C.ar      1 <1>        -0.0765
      6 C5          1.9600    4.2014    4.2036 C.ar      1 <1>        -0.0594
      7 C6          2.9128    3.9136    5.1798 C.ar      1 <1>        -0.0767
      8 C7          2.6899    4.2849    6.4894 C.ar      1 <1>        -0.0651
      9 C8          2.1991    3.8092    2.7936 C.2       1 <1>        -0.0225
     10 C9          1.3472    3.1294    1.9820 C.2       1 <1>        -0.0188
     11 N1          1.9286    2.9600    0.7548 N.pl3     1 <1>        -0.3087
     12 C10         3.1740    3.5252    0.7375 C.2       1 <1>         0.0420
     13 C11         3.3995    4.0783    1.9996 C.2       1 <1>         0.0556
     14 C12         4.6747    4.7529    2.2511 C.2       1 <1>         0.0012
     15 N2          4.9477    5.2872    3.4182 N.2       1 <1>        -0.4336
     16 N3          5.5820    4.7978    1.2068 N.pl3     1 <1>        -0.4564
     17 C13         5.2618    4.2268    0.0148 C.2       1 <1>         0.0248
     18 N4          4.1296    3.6290   -0.2038 N.2       1 <1>        -0.3388
     19 N5          6.7912    5.4112    1.3726 N.3       1 <1>         0.3827
     20 C14         1.3328    2.3003   -0.3299 C.ar      1 <1>        -0.0195
     21 C15         1.2962    2.9085   -1.5775 C.ar      1 <1>        -0.0567
     22 C16         0.7139    2.2565   -2.6463 C.ar      1 <1>        -0.0563
     23 C17         0.1565    0.9982   -2.4714 C.ar      1 <1>        -0.0089
     24 C18         0.1882    0.3921   -1.2238 C.ar      1 <1>        -0.0462
     25 C19         0.7745    1.0412   -0.1554 C.ar      1 <1>        -0.0503
     26 O2         -0.4214    0.3588   -3.5229 O.3       1 <1>        -0.4166
     27 C20        -0.4183    1.0413   -4.7783 C.3       1 <1>         0.0244
     28 H1          2.4686    3.8924    9.0928 H         1 <1>         0.0875
     29 H2          3.2455    5.4645    8.7878 H         1 <1>         0.0880
     30 H3          2.0160    5.3124   10.0659 H         1 <1>         0.1192
     31 H4         -0.3539    5.7223    6.1434 H         1 <1>         0.1232
     32 H5          0.0376    5.0740    3.8036 H         1 <1>         0.1331
     33 H6          3.8260    3.4041    4.9103 H         1 <1>         0.1382
     34 H7          3.4297    4.0664    7.2453 H         1 <1>         0.1089
     35 H8          0.3651    2.7778    2.2617 H         1 <1>         0.2046
     36 H9          5.8007    5.7257    3.5633 H         1 <1>         0.2492
     37 H10         5.9830    4.2723   -0.7878 H         1 <1>         0.3023
     38 H11         7.4850    4.7588    1.7061 H         1 <1>         0.0180
     39 H12         7.0925    5.8536    0.5173 H         1 <1>         0.0306
     40 H13         1.7265    3.8898   -1.7128 H         1 <1>         0.1446
     41 H14         0.6886    2.7279   -3.6176 H         1 <1>         0.1218
     42 H15        -0.2462   -0.5873   -1.0882 H         1 <1>         0.1387
     43 H16         0.7984    0.5696    0.8160 H         1 <1>         0.1476
     44 H17        -0.9536    1.9857   -4.6797 H         1 <1>         0.0900
     45 H18         0.6098    1.2365   -5.0834 H         1 <1>         0.0900
     46 H19        -0.9089    0.4224   -5.5296 H         1 <1>         0.1230
@<TRIPOS>BOND
     1    1    2 1
     2    1   28 1
     3    1   29 1
     4    1   30 1
     5    2    3 1
     6    3    8 ar
     7    3    4 ar
     8    4    5 ar
     9    4   31 1
    10    5    6 ar
    11    5   32 1
    12    6    7 ar
    13    6    9 1
    14    7    8 ar
    15    7   33 1
    16    8   34 1
    17    9   13 1
    18    9   10 2
    19   10   11 1
    20   10   35 1
    21   11   12 1
    22   11   20 1
    23   12   18 1
    24   12   13 2
    25   13   14 1
    26   14   15 2
    27   14   16 1
    28   15   36 1
    29   16   17 1
    30   16   19 1
    31   17   18 2
    32   17   37 1
    33   19   38 1
    34   19   39 1
    35   20   25 ar
    36   20   21 ar
    37   21   22 ar
    38   21   40 1
    39   22   23 ar
    40   22   41 1
    41   23   24 ar
    42   23   26 1
    43   24   25 ar
    44   24   42 1
    45   25   43 1
    46   26   27 1
    47   27   44 1
    48   27   45 1
    49   27   46 1
@<TRIPOS>Similarity
1.1367
@<TRIPOS>ShapeSim
0.6308
@<TRIPOS>PharmSim
0.5059
# END
# Name:		ZINC03852042
# Created and modified by SHAFTS on Mon Jun 23 14:53:19 2014

# 

@<TRIPOS>MOLECULE
ZINC03852042
   46    49     0
SMALL
USER_CHARGE


@<TRIPOS>ATOM
      1 C1          2.3168    4.9716    9.0753 C.3       1 <1>         0.0215
      2 O1          1.2944    5.2933    8.1301 O.3       1 <1>        -0.4212
      3 C2          1.5136    4.9343    6.8377 C.ar      1 <1>        -0.0183
      4 C3          0.5604    5.2172    5.8691 C.ar      1 <1>        -0.0599
      5 C4          0.7797    4.8537    4.5567 C.ar      1 <1>        -0.0765
      6 C5          1.9600    4.2014    4.2036 C.ar      1 <1>        -0.0594
      7 C6          2.9128    3.9136    5.1798 C.ar      1 <1>        -0.0767
      8 C7          2.6899    4.2849    6.4894 C.ar      1 <1>        -0.0651
      9 C8          2.1991    3.8092    2.7936 C.2       1 <1>        -0.0225
     10 C9          1.3472    3.1294    1.9820 C.2       1 <1>        -0.0188
     11 N1          1.9286    2.9600    0.7548 N.pl3     1 <1>        -0.3087
     12 C10         3.1740    3.5252    0.7375 C.2       1 <1>         0.0420
     13 C11         3.3995    4.0783    1.9996 C.2       1 <1>         0.0556
     14 C12         4.6747    4.7529    2.2511 C.2       1 <1>         0.0012
     15 N2          4.9477    5.2872    3.4182 N.2       1 <1>        -0.4336
     16 N3          5.5820    4.7978    1.2068 N.pl3     1 <1>        -0.4564
     17 C13         5.2618    4.2268    0.0148 C.2       1 <1>         0.0248
     18 N4          4.1296    3.6290   -0.2038 N.2       1 <1>        -0.3388
     19 N5          6.7912    5.4112    1.3726 N.3       1 <1>         0.3827
     20 C14         1.3328    2.3003   -0.3299 C.ar      1 <1>        -0.0195
     21 C15         1.2962    2.9085   -1.5775 C.ar      1 <1>        -0.0567
     22 C16         0.7139    2.2565   -2.6463 C.ar      1 <1>        -0.0563
     23 C17         0.1565    0.9982   -2.4714 C.ar      1 <1>        -0.0089
     24 C18         0.1882    0.3921   -1.2238 C.ar      1 <1>        -0.0462
     25 C19         0.7745    1.0412   -0.1554 C.ar      1 <1>        -0.0503
     26 O2         -0.4214    0.3588   -3.5229 O.3       1 <1>        -0.4166
     27 C20        -0.4183    1.0413   -4.7783 C.3       1 <1>         0.0244
     28 H1          2.4686    3.8924    9.0928 H         1 <1>         0.0875
     29 H2          3.2455    5.4645    8.7878 H         1 <1>         0.0880
     30 H3          2.0160    5.3124   10.0659 H         1 <1>         0.1192
     31 H4         -0.3539    5.7223    6.1434 H         1 <1>         0.1232
     32 H5          0.0376    5.0740    3.8036 H         1 <1>         0.1331
     33 H6          3.8260    3.4041    4.9103 H         1 <1>         0.1382
     34 H7          3.4297    4.0664    7.2453 H         1 <1>         0.1089
     35 H8          0.3651    2.7778    2.2617 H         1 <1>         0.2046
     36 H9          5.8007    5.7257    3.5633 H         1 <1>         0.2492
     37 H10         5.9830    4.2723   -0.7878 H         1 <1>         0.3023
     38 H11         7.4850    4.7588    1.7061 H         1 <1>         0.0180
     39 H12         7.0925    5.8536    0.5173 H         1 <1>         0.0306
     40 H13         1.7265    3.8898   -1.7128 H         1 <1>         0.1446
     41 H14         0.6886    2.7279   -3.6176 H         1 <1>         0.1218
     42 H15        -0.2462   -0.5873   -1.0882 H         1 <1>         0.1387
     43 H16         0.7984    0.5696    0.8160 H         1 <1>         0.1476
     44 H17        -0.9536    1.9857   -4.6797 H         1 <1>         0.0900
     45 H18         0.6098    1.2365   -5.0834 H         1 <1>         0.0900
     46 H19        -0.9089    0.4224   -5.5296 H         1 <1>         0.1230
@<TRIPOS>BOND
     1    1    2 1
     2    1   28 1
     3    1   29 1
     4    1   30 1
     5    2    3 1
     6    3    8 ar
     7    3    4 ar
     8    4    5 ar
     9    4   31 1
    10    5    6 ar
    11    5   32 1
    12    6    7 ar
    13    6    9 1
    14    7    8 ar
    15    7   33 1
    16    8   34 1
    17    9   13 1
    18    9   10 2
    19   10   11 1
    20   10   35 1
    21   11   12 1
    22   11   20 1
    23   12   18 1
    24   12   13 2
    25   13   14 1
    26   14   15 2
    27   14   16 1
    28   15   36 1
    29   16   17 1
    30   16   19 1
    31   17   18 2
    32   17   37 1
    33   19   38 1
    34   19   39 1
    35   20   25 ar
    36   20   21 ar
    37   21   22 ar
    38   21   40 1
    39   22   23 ar
    40   22   41 1
    41   23   24 ar
    42   23   26 1
    43   24   25 ar
    44   24   42 1
    45   25   43 1
    46   26   27 1
    47   27   44 1
    48   27   45 1
    49   27   46 1
@<TRIPOS>Similarity
1.1367
@<TRIPOS>ShapeSim
0.6308
@<TRIPOS>PharmSim
0.5059
# END
# Name:		ZINC03852042
# Created and modified by SHAFTS on Mon Jun 23 14:53:19 2014

# 

@<TRIPOS>MOLECULE
ZINC03852042
   46    49     0
SMALL
USER_CHARGE


@<TRIPOS>ATOM
      1 C1          2.3168    4.9716    9.0753 C.3       1 <1>         0.0215
      2 O1          1.2944    5.2933    8.1301 O.3       1 <1>        -0.4212
      3 C2          1.5136    4.9343    6.8377 C.ar      1 <1>        -0.0183
      4 C3          0.5604    5.2172    5.8691 C.ar      1 <1>        -0.0599
      5 C4          0.7797    4.8537    4.5567 C.ar      1 <1>        -0.0765
      6 C5          1.9600    4.2014    4.2036 C.ar      1 <1>        -0.0594
      7 C6          2.9128    3.9136    5.1798 C.ar      1 <1>        -0.0767
      8 C7          2.6899    4.2849    6.4894 C.ar      1 <1>        -0.0651
      9 C8          2.1991    3.8092    2.7936 C.2       1 <1>        -0.0225
     10 C9          1.3472    3.1294    1.9820 C.2       1 <1>        -0.0188
     11 N1          1.9286    2.9600    0.7548 N.pl3     1 <1>        -0.3087
     12 C10         3.1740    3.5252    0.7375 C.2       1 <1>         0.0420
     13 C11         3.3995    4.0783    1.9996 C.2       1 <1>         0.0556
     14 C12         4.6747    4.7529    2.2511 C.2       1 <1>         0.0012
     15 N2          4.9477    5.2872    3.4182 N.2       1 <1>        -0.4336
     16 N3          5.5820    4.7978    1.2068 N.pl3     1 <1>        -0.4564
     17 C13         5.2618    4.2268    0.0148 C.2       1 <1>         0.0248
     18 N4          4.1296    3.6290   -0.2038 N.2       1 <1>        -0.3388
     19 N5          6.7912    5.4112    1.3726 N.3       1 <1>         0.3827
     20 C14         1.3328    2.3003   -0.3299 C.ar      1 <1>        -0.0195
     21 C15         1.2962    2.9085   -1.5775 C.ar      1 <1>        -0.0567
     22 C16         0.7139    2.2565   -2.6463 C.ar      1 <1>        -0.0563
     23 C17         0.1565    0.9982   -2.4714 C.ar      1 <1>        -0.0089
     24 C18         0.1882    0.3921   -1.2238 C.ar      1 <1>        -0.0462
     25 C19         0.7745    1.0412   -0.1554 C.ar      1 <1>        -0.0503
     26 O2         -0.4214    0.3588   -3.5229 O.3       1 <1>        -0.4166
     27 C20        -0.4183    1.0413   -4.7783 C.3       1 <1>         0.0244
     28 H1          2.4686    3.8924    9.0928 H         1 <1>         0.0875
     29 H2          3.2455    5.4645    8.7878 H         1 <1>         0.0880
     30 H3          2.0160    5.3124   10.0659 H         1 <1>         0.1192
     31 H4         -0.3539    5.7223    6.1434 H         1 <1>         0.1232
     32 H5          0.0376    5.0740    3.8036 H         1 <1>         0.1331
     33 H6          3.8260    3.4041    4.9103 H         1 <1>         0.1382
     34 H7          3.4297    4.0664    7.2453 H         1 <1>         0.1089
     35 H8          0.3651    2.7778    2.2617 H         1 <1>         0.2046
     36 H9          5.8007    5.7257    3.5633 H         1 <1>         0.2492
     37 H10         5.9830    4.2723   -0.7878 H         1 <1>         0.3023
     38 H11         7.4850    4.7588    1.7061 H         1 <1>         0.0180
     39 H12         7.0925    5.8536    0.5173 H         1 <1>         0.0306
     40 H13         1.7265    3.8898   -1.7128 H         1 <1>         0.1446
     41 H14         0.6886    2.7279   -3.6176 H         1 <1>         0.1218
     42 H15        -0.2462   -0.5873   -1.0882 H         1 <1>         0.1387
     43 H16         0.7984    0.5696    0.8160 H         1 <1>         0.1476
     44 H17        -0.9536    1.9857   -4.6797 H         1 <1>         0.0900
     45 H18         0.6098    1.2365   -5.0834 H         1 <1>         0.0900
     46 H19        -0.9089    0.4224   -5.5296 H         1 <1>         0.1230
@<TRIPOS>BOND
     1    1    2 1
     2    1   28 1
     3    1   29 1
     4    1   30 1
     5    2    3 1
     6    3    8 ar
     7    3    4 ar
     8    4    5 ar
     9    4   31 1
    10    5    6 ar
    11    5   32 1
    12    6    7 ar
    13    6    9 1
    14    7    8 ar
    15    7   33 1
    16    8   34 1
    17    9   13 1
    18    9   10 2
    19   10   11 1
    20   10   35 1
    21   11   12 1
    22   11   20 1
    23   12   18 1
    24   12   13 2
    25   13   14 1
    26   14   15 2
    27   14   16 1
    28   15   36 1
    29   16   17 1
    30   16   19 1
    31   17   18 2
    32   17   37 1
    33   19   38 1
    34   19   39 1
    35   20   25 ar
    36   20   21 ar
    37   21   22 ar
    38   21   40 1
    39   22   23 ar
    40   22   41 1
    41   23   24 ar
    42   23   26 1
    43   24   25 ar
    44   24   42 1
    45   25   43 1
    46   26   27 1
    47   27   44 1
    48   27   45 1
    49   27   46 1
@<TRIPOS>Similarity
1.1367
@<TRIPOS>ShapeSim
0.6308
@<TRIPOS>PharmSim
0.5059
# END
# Name:		ZINC03852042
# Created and modified by SHAFTS on Mon Jun 23 14:53:19 2014

# 

@<TRIPOS>MOLECULE
ZINC03852042
   46    49     0
SMALL
USER_CHARGE


@<TRIPOS>ATOM
      1 C1          2.3168    4.9716    9.0753 C.3       1 <1>         0.0215
      2 O1          1.2944    5.2933    8.1301 O.3       1 <1>        -0.4212
      3 C2          1.5136    4.9343    6.8377 C.ar      1 <1>        -0.0183
      4 C3          0.5604    5.2172    5.8691 C.ar      1 <1>        -0.0599
      5 C4          0.7797    4.8537    4.5567 C.ar      1 <1>        -0.0765
      6 C5          1.9600    4.2014    4.2036 C.ar      1 <1>        -0.0594
      7 C6          2.9128    3.9136    5.1798 C.ar      1 <1>        -0.0767
      8 C7          2.6899    4.2849    6.4894 C.ar      1 <1>        -0.0651
      9 C8          2.1991    3.8092    2.7936 C.2       1 <1>        -0.0225
     10 C9          1.3472    3.1294    1.9820 C.2       1 <1>        -0.0188
     11 N1          1.9286    2.9600    0.7548 N.pl3     1 <1>        -0.3087
     12 C10         3.1740    3.5252    0.7375 C.2       1 <1>         0.0420
     13 C11         3.3995    4.0783    1.9996 C.2       1 <1>         0.0556
     14 C12         4.6747    4.7529    2.2511 C.2       1 <1>         0.0012
     15 N2          4.9477    5.2872    3.4182 N.2       1 <1>        -0.4336
     16 N3          5.5820    4.7978    1.2068 N.pl3     1 <1>        -0.4564
     17 C13         5.2618    4.2268    0.0148 C.2       1 <1>         0.0248
     18 N4          4.1296    3.6290   -0.2038 N.2       1 <1>        -0.3388
     19 N5          6.7912    5.4112    1.3726 N.3       1 <1>         0.3827
     20 C14         1.3328    2.3003   -0.3299 C.ar      1 <1>        -0.0195
     21 C15         1.2962    2.9085   -1.5775 C.ar      1 <1>        -0.0567
     22 C16         0.7139    2.2565   -2.6463 C.ar      1 <1>        -0.0563
     23 C17         0.1565    0.9982   -2.4714 C.ar      1 <1>        -0.0089
     24 C18         0.1882    0.3921   -1.2238 C.ar      1 <1>        -0.0462
     25 C19         0.7745    1.0412   -0.1554 C.ar      1 <1>        -0.0503
     26 O2         -0.4214    0.3588   -3.5229 O.3       1 <1>        -0.4166
     27 C20        -0.4183    1.0413   -4.7783 C.3       1 <1>         0.0244
     28 H1          2.4686    3.8924    9.0928 H         1 <1>         0.0875
     29 H2          3.2455    5.4645    8.7878 H         1 <1>         0.0880
     30 H3          2.0160    5.3124   10.0659 H         1 <1>         0.1192
     31 H4         -0.3539    5.7223    6.1434 H         1 <1>         0.1232
     32 H5          0.0376    5.0740    3.8036 H         1 <1>         0.1331
     33 H6          3.8260    3.4041    4.9103 H         1 <1>         0.1382
     34 H7          3.4297    4.0664    7.2453 H         1 <1>         0.1089
     35 H8          0.3651    2.7778    2.2617 H         1 <1>         0.2046
     36 H9          5.8007    5.7257    3.5633 H         1 <1>         0.2492
     37 H10         5.9830    4.2723   -0.7878 H         1 <1>         0.3023
     38 H11         7.4850    4.7588    1.7061 H         1 <1>         0.0180
     39 H12         7.0925    5.8536    0.5173 H         1 <1>         0.0306
     40 H13         1.7265    3.8898   -1.7128 H         1 <1>         0.1446
     41 H14         0.6886    2.7279   -3.6176 H         1 <1>         0.1218
     42 H15        -0.2462   -0.5873   -1.0882 H         1 <1>         0.1387
     43 H16         0.7984    0.5696    0.8160 H         1 <1>         0.1476
     44 H17        -0.9536    1.9857   -4.6797 H         1 <1>         0.0900
     45 H18         0.6098    1.2365   -5.0834 H         1 <1>         0.0900
     46 H19        -0.9089    0.4224   -5.5296 H         1 <1>         0.1230
@<TRIPOS>BOND
     1    1    2 1
     2    1   28 1
     3    1   29 1
     4    1   30 1
     5    2    3 1
     6    3    8 ar
     7    3    4 ar
     8    4    5 ar
     9    4   31 1
    10    5    6 ar
    11    5   32 1
    12    6    7 ar
    13    6    9 1
    14    7    8 ar
    15    7   33 1
    16    8   34 1
    17    9   13 1
    18    9   10 2
    19   10   11 1
    20   10   35 1
    21   11   12 1
    22   11   20 1
    23   12   18 1
    24   12   13 2
    25   13   14 1
    26   14   15 2
    27   14   16 1
    28   15   36 1
    29   16   17 1
    30   16   19 1
    31   17   18 2
    32   17   37 1
    33   19   38 1
    34   19   39 1
    35   20   25 ar
    36   20   21 ar
    37   21   22 ar
    38   21   40 1
    39   22   23 ar
    40   22   41 1
    41   23   24 ar
    42   23   26 1
    43   24   25 ar
    44   24   42 1
    45   25   43 1
    46   26   27 1
    47   27   44 1
    48   27   45 1
    49   27   46 1
@<TRIPOS>Similarity
1.1367
@<TRIPOS>ShapeSim
0.6308
@<TRIPOS>PharmSim
0.5059
# END
# Name:		ZINC03852042
# Created and modified by SHAFTS on Mon Jun 23 14:53:19 2014

# 

@<TRIPOS>MOLECULE
ZINC03852042
   46    49     0
SMALL
USER_CHARGE


@<TRIPOS>ATOM
      1 C1          2.3168    4.9716    9.0753 C.3       1 <1>         0.0215
      2 O1          1.2944    5.2933    8.1301 O.3       1 <1>        -0.4212
      3 C2          1.5136    4.9343    6.8377 C.ar      1 <1>        -0.0183
      4 C3          0.5604    5.2172    5.8691 C.ar      1 <1>        -0.0599
      5 C4          0.7797    4.8537    4.5567 C.ar      1 <1>        -0.0765
      6 C5          1.9600    4.2014    4.2036 C.ar      1 <1>        -0.0594
      7 C6          2.9128    3.9136    5.1798 C.ar      1 <1>        -0.0767
      8 C7          2.6899    4.2849    6.4894 C.ar      1 <1>        -0.0651
      9 C8          2.1991    3.8092    2.7936 C.2       1 <1>        -0.0225
     10 C9          1.3472    3.1294    1.9820 C.2       1 <1>        -0.0188
     11 N1          1.9286    2.9600    0.7548 N.pl3     1 <1>        -0.3087
     12 C10         3.1740    3.5252    0.7375 C.2       1 <1>         0.0420
     13 C11         3.3995    4.0783    1.9996 C.2       1 <1>         0.0556
     14 C12         4.6747    4.7529    2.2511 C.2       1 <1>         0.0012
     15 N2          4.9477    5.2872    3.4182 N.2       1 <1>        -0.4336
     16 N3          5.5820    4.7978    1.2068 N.pl3     1 <1>        -0.4564
     17 C13         5.2618    4.2268    0.0148 C.2       1 <1>         0.0248
     18 N4          4.1296    3.6290   -0.2038 N.2       1 <1>        -0.3388
     19 N5          6.7912    5.4112    1.3726 N.3       1 <1>         0.3827
     20 C14         1.3328    2.3003   -0.3299 C.ar      1 <1>        -0.0195
     21 C15         1.2962    2.9085   -1.5775 C.ar      1 <1>        -0.0567
     22 C16         0.7139    2.2565   -2.6463 C.ar      1 <1>        -0.0563
     23 C17         0.1565    0.9982   -2.4714 C.ar      1 <1>        -0.0089
     24 C18         0.1882    0.3921   -1.2238 C.ar      1 <1>        -0.0462
     25 C19         0.7745    1.0412   -0.1554 C.ar      1 <1>        -0.0503
     26 O2         -0.4214    0.3588   -3.5229 O.3       1 <1>        -0.4166
     27 C20        -0.4183    1.0413   -4.7783 C.3       1 <1>         0.0244
     28 H1          2.4686    3.8924    9.0928 H         1 <1>         0.0875
     29 H2          3.2455    5.4645    8.7878 H         1 <1>         0.0880
     30 H3          2.0160    5.3124   10.0659 H         1 <1>         0.1192
     31 H4         -0.3539    5.7223    6.1434 H         1 <1>         0.1232
     32 H5          0.0376    5.0740    3.8036 H         1 <1>         0.1331
     33 H6          3.8260    3.4041    4.9103 H         1 <1>         0.1382
     34 H7          3.4297    4.0664    7.2453 H         1 <1>         0.1089
     35 H8          0.3651    2.7778    2.2617 H         1 <1>         0.2046
     36 H9          5.8007    5.7257    3.5633 H         1 <1>         0.2492
     37 H10         5.9830    4.2723   -0.7878 H         1 <1>         0.3023
     38 H11         7.4850    4.7588    1.7061 H         1 <1>         0.0180
     39 H12         7.0925    5.8536    0.5173 H         1 <1>         0.0306
     40 H13         1.7265    3.8898   -1.7128 H         1 <1>         0.1446
     41 H14         0.6886    2.7279   -3.6176 H         1 <1>         0.1218
     42 H15        -0.2462   -0.5873   -1.0882 H         1 <1>         0.1387
     43 H16         0.7984    0.5696    0.8160 H         1 <1>         0.1476
     44 H17        -0.9536    1.9857   -4.6797 H         1 <1>         0.0900
     45 H18         0.6098    1.2365   -5.0834 H         1 <1>         0.0900
     46 H19        -0.9089    0.4224   -5.5296 H         1 <1>         0.1230
@<TRIPOS>BOND
     1    1    2 1
     2    1   28 1
     3    1   29 1
     4    1   30 1
     5    2    3 1
     6    3    8 ar
     7    3    4 ar
     8    4    5 ar
     9    4   31 1
    10    5    6 ar
    11    5   32 1
    12    6    7 ar
    13    6    9 1
    14    7    8 ar
    15    7   33 1
    16    8   34 1
    17    9   13 1
    18    9   10 2
    19   10   11 1
    20   10   35 1
    21   11   12 1
    22   11   20 1
    23   12   18 1
    24   12   13 2
    25   13   14 1
    26   14   15 2
    27   14   16 1
    28   15   36 1
    29   16   17 1
    30   16   19 1
    31   17   18 2
    32   17   37 1
    33   19   38 1
    34   19   39 1
    35   20   25 ar
    36   20   21 ar
    37   21   22 ar
    38   21   40 1
    39   22   23 ar
    40   22   41 1
    41   23   24 ar
    42   23   26 1
    43   24   25 ar
    44   24   42 1
    45   25   43 1
    46   26   27 1
    47   27   44 1
    48   27   45 1
    49   27   46 1
@<TRIPOS>Similarity
1.1367
@<TRIPOS>ShapeSim
0.6308
@<TRIPOS>PharmSim
0.5059
# END
# Name:		ZINC03852042
# Created and modified by SHAFTS on Mon Jun 23 14:53:19 2014

# 

@<TRIPOS>MOLECULE
ZINC03852042
   46    49     0
SMALL
USER_CHARGE


@<TRIPOS>ATOM
      1 C1          2.3168    4.9716    9.0753 C.3       1 <1>         0.0215
      2 O1          1.2944    5.2933    8.1301 O.3       1 <1>        -0.4212
      3 C2          1.5136    4.9343    6.8377 C.ar      1 <1>        -0.0183
      4 C3          0.5604    5.2172    5.8691 C.ar      1 <1>        -0.0599
      5 C4          0.7797    4.8537    4.5567 C.ar      1 <1>        -0.0765
      6 C5          1.9600    4.2014    4.2036 C.ar      1 <1>        -0.0594
      7 C6          2.9128    3.9136    5.1798 C.ar      1 <1>        -0.0767
      8 C7          2.6899    4.2849    6.4894 C.ar      1 <1>        -0.0651
      9 C8          2.1991    3.8092    2.7936 C.2       1 <1>        -0.0225
     10 C9          1.3472    3.1294    1.9820 C.2       1 <1>        -0.0188
     11 N1          1.9286    2.9600    0.7548 N.pl3     1 <1>        -0.3087
     12 C10         3.1740    3.5252    0.7375 C.2       1 <1>         0.0420
     13 C11         3.3995    4.0783    1.9996 C.2       1 <1>         0.0556
     14 C12         4.6747    4.7529    2.2511 C.2       1 <1>         0.0012
     15 N2          4.9477    5.2872    3.4182 N.2       1 <1>        -0.4336
     16 N3          5.5820    4.7978    1.2068 N.pl3     1 <1>        -0.4564
     17 C13         5.2618    4.2268    0.0148 C.2       1 <1>         0.0248
     18 N4          4.1296    3.6290   -0.2038 N.2       1 <1>        -0.3388
     19 N5          6.7912    5.4112    1.3726 N.3       1 <1>         0.3827
     20 C14         1.3328    2.3003   -0.3299 C.ar      1 <1>        -0.0195
     21 C15         1.2962    2.9085   -1.5775 C.ar      1 <1>        -0.0567
     22 C16         0.7139    2.2565   -2.6463 C.ar      1 <1>        -0.0563
     23 C17         0.1565    0.9982   -2.4714 C.ar      1 <1>        -0.0089
     24 C18         0.1882    0.3921   -1.2238 C.ar      1 <1>        -0.0462
     25 C19         0.7745    1.0412   -0.1554 C.ar      1 <1>        -0.0503
     26 O2         -0.4214    0.3588   -3.5229 O.3       1 <1>        -0.4166
     27 C20        -0.4183    1.0413   -4.7783 C.3       1 <1>         0.0244
     28 H1          2.4686    3.8924    9.0928 H         1 <1>         0.0875
     29 H2          3.2455    5.4645    8.7878 H         1 <1>         0.0880
     30 H3          2.0160    5.3124   10.0659 H         1 <1>         0.1192
     31 H4         -0.3539    5.7223    6.1434 H         1 <1>         0.1232
     32 H5          0.0376    5.0740    3.8036 H         1 <1>         0.1331
     33 H6          3.8260    3.4041    4.9103 H         1 <1>         0.1382
     34 H7          3.4297    4.0664    7.2453 H         1 <1>         0.1089
     35 H8          0.3651    2.7778    2.2617 H         1 <1>         0.2046
     36 H9          5.8007    5.7257    3.5633 H         1 <1>         0.2492
     37 H10         5.9830    4.2723   -0.7878 H         1 <1>         0.3023
     38 H11         7.4850    4.7588    1.7061 H         1 <1>         0.0180
     39 H12         7.0925    5.8536    0.5173 H         1 <1>         0.0306
     40 H13         1.7265    3.8898   -1.7128 H         1 <1>         0.1446
     41 H14         0.6886    2.7279   -3.6176 H         1 <1>         0.1218
     42 H15        -0.2462   -0.5873   -1.0882 H         1 <1>         0.1387
     43 H16         0.7984    0.5696    0.8160 H         1 <1>         0.1476
     44 H17        -0.9536    1.9857   -4.6797 H         1 <1>         0.0900
     45 H18         0.6098    1.2365   -5.0834 H         1 <1>         0.0900
     46 H19        -0.9089    0.4224   -5.5296 H         1 <1>         0.1230
@<TRIPOS>BOND
     1    1    2 1
     2    1   28 1
     3    1   29 1
     4    1   30 1
     5    2    3 1
     6    3    8 ar
     7    3    4 ar
     8    4    5 ar
     9    4   31 1
    10    5    6 ar
    11    5   32 1
    12    6    7 ar
    13    6    9 1
    14    7    8 ar
    15    7   33 1
    16    8   34 1
    17    9   13 1
    18    9   10 2
    19   10   11 1
    20   10   35 1
    21   11   12 1
    22   11   20 1
    23   12   18 1
    24   12   13 2
    25   13   14 1
    26   14   15 2
    27   14   16 1
    28   15   36 1
    29   16   17 1
    30   16   19 1
    31   17   18 2
    32   17   37 1
    33   19   38 1
    34   19   39 1
    35   20   25 ar
    36   20   21 ar
    37   21   22 ar
    38   21   40 1
    39   22   23 ar
    40   22   41 1
    41   23   24 ar
    42   23   26 1
    43   24   25 ar
    44   24   42 1
    45   25   43 1
    46   26   27 1
    47   27   44 1
    48   27   45 1
    49   27   46 1
@<TRIPOS>Similarity
1.1367
@<TRIPOS>ShapeSim
0.6308
@<TRIPOS>PharmSim
0.5059
# END
# Name:		ZINC03852042
# Created and modified by SHAFTS on Mon Jun 23 14:53:19 2014

# 

@<TRIPOS>MOLECULE
ZINC03852042
   46    49     0
SMALL
USER_CHARGE


@<TRIPOS>ATOM
      1 C1          2.3168    4.9716    9.0753 C.3       1 <1>         0.0215
      2 O1          1.2944    5.2933    8.1301 O.3       1 <1>        -0.4212
      3 C2          1.5136    4.9343    6.8377 C.ar      1 <1>        -0.0183
      4 C3          0.5604    5.2172    5.8691 C.ar      1 <1>        -0.0599
      5 C4          0.7797    4.8537    4.5567 C.ar      1 <1>        -0.0765
      6 C5          1.9600    4.2014    4.2036 C.ar      1 <1>        -0.0594
      7 C6          2.9128    3.9136    5.1798 C.ar      1 <1>        -0.0767
      8 C7          2.6899    4.2849    6.4894 C.ar      1 <1>        -0.0651
      9 C8          2.1991    3.8092    2.7936 C.2       1 <1>        -0.0225
     10 C9          1.3472    3.1294    1.9820 C.2       1 <1>        -0.0188
     11 N1          1.9286    2.9600    0.7548 N.pl3     1 <1>        -0.3087
     12 C10         3.1740    3.5252    0.7375 C.2       1 <1>         0.0420
     13 C11         3.3995    4.0783    1.9996 C.2       1 <1>         0.0556
     14 C12         4.6747    4.7529    2.2511 C.2       1 <1>         0.0012
     15 N2          4.9477    5.2872    3.4182 N.2       1 <1>        -0.4336
     16 N3          5.5820    4.7978    1.2068 N.pl3     1 <1>        -0.4564
     17 C13         5.2618    4.2268    0.0148 C.2       1 <1>         0.0248
     18 N4          4.1296    3.6290   -0.2038 N.2       1 <1>        -0.3388
     19 N5          6.7912    5.4112    1.3726 N.3       1 <1>         0.3827
     20 C14         1.3328    2.3003   -0.3299 C.ar      1 <1>        -0.0195
     21 C15         1.2962    2.9085   -1.5775 C.ar      1 <1>        -0.0567
     22 C16         0.7139    2.2565   -2.6463 C.ar      1 <1>        -0.0563
     23 C17         0.1565    0.9982   -2.4714 C.ar      1 <1>        -0.0089
     24 C18         0.1882    0.3921   -1.2238 C.ar      1 <1>        -0.0462
     25 C19         0.7745    1.0412   -0.1554 C.ar      1 <1>        -0.0503
     26 O2         -0.4214    0.3588   -3.5229 O.3       1 <1>        -0.4166
     27 C20        -0.4183    1.0413   -4.7783 C.3       1 <1>         0.0244
     28 H1          2.4686    3.8924    9.0928 H         1 <1>         0.0875
     29 H2          3.2455    5.4645    8.7878 H         1 <1>         0.0880
     30 H3          2.0160    5.3124   10.0659 H         1 <1>         0.1192
     31 H4         -0.3539    5.7223    6.1434 H         1 <1>         0.1232
     32 H5          0.0376    5.0740    3.8036 H         1 <1>         0.1331
     33 H6          3.8260    3.4041    4.9103 H         1 <1>         0.1382
     34 H7          3.4297    4.0664    7.2453 H         1 <1>         0.1089
     35 H8          0.3651    2.7778    2.2617 H         1 <1>         0.2046
     36 H9          5.8007    5.7257    3.5633 H         1 <1>         0.2492
     37 H10         5.9830    4.2723   -0.7878 H         1 <1>         0.3023
     38 H11         7.4850    4.7588    1.7061 H         1 <1>         0.0180
     39 H12         7.0925    5.8536    0.5173 H         1 <1>         0.0306
     40 H13         1.7265    3.8898   -1.7128 H         1 <1>         0.1446
     41 H14         0.6886    2.7279   -3.6176 H         1 <1>         0.1218
     42 H15        -0.2462   -0.5873   -1.0882 H         1 <1>         0.1387
     43 H16         0.7984    0.5696    0.8160 H         1 <1>         0.1476
     44 H17        -0.9536    1.9857   -4.6797 H         1 <1>         0.0900
     45 H18         0.6098    1.2365   -5.0834 H         1 <1>         0.0900
     46 H19        -0.9089    0.4224   -5.5296 H         1 <1>         0.1230
@<TRIPOS>BOND
     1    1    2 1
     2    1   28 1
     3    1   29 1
     4    1   30 1
     5    2    3 1
     6    3    8 ar
     7    3    4 ar
     8    4    5 ar
     9    4   31 1
    10    5    6 ar
    11    5   32 1
    12    6    7 ar
    13    6    9 1
    14    7    8 ar
    15    7   33 1
    16    8   34 1
    17    9   13 1
    18    9   10 2
    19   10   11 1
    20   10   35 1
    21   11   12 1
    22   11   20 1
    23   12   18 1
    24   12   13 2
    25   13   14 1
    26   14   15 2
    27   14   16 1
    28   15   36 1
    29   16   17 1
    30   16   19 1
    31   17   18 2
    32   17   37 1
    33   19   38 1
    34   19   39 1
    35   20   25 ar
    36   20   21 ar
    37   21   22 ar
    38   21   40 1
    39   22   23 ar
    40   22   41 1
    41   23   24 ar
    42   23   26 1
    43   24   25 ar
    44   24   42 1
    45   25   43 1
    46   26   27 1
    47   27   44 1
    48   27   45 1
    49   27   46 1
@<TRIPOS>Similarity
1.1367
@<TRIPOS>ShapeSim
0.6308
@<TRIPOS>PharmSim
0.5059
# END
# Name:		ZINC03852042
# Created and modified by SHAFTS on Mon Jun 23 14:53:19 2014

# 

@<TRIPOS>MOLECULE
ZINC03852042
   46    49     0
SMALL
USER_CHARGE


@<TRIPOS>ATOM
      1 C1          2.3168    4.9716    9.0753 C.3       1 <1>         0.0215
      2 O1          1.2944    5.2933    8.1301 O.3       1 <1>        -0.4212
      3 C2          1.5136    4.9343    6.8377 C.ar      1 <1>        -0.0183
      4 C3          0.5604    5.2172    5.8691 C.ar      1 <1>        -0.0599
      5 C4          0.7797    4.8537    4.5567 C.ar      1 <1>        -0.0765
      6 C5          1.9600    4.2014    4.2036 C.ar      1 <1>        -0.0594
      7 C6          2.9128    3.9136    5.1798 C.ar      1 <1>        -0.0767
      8 C7          2.6899    4.2849    6.4894 C.ar      1 <1>        -0.0651
      9 C8          2.1991    3.8092    2.7936 C.2       1 <1>        -0.0225
     10 C9          1.3472    3.1294    1.9820 C.2       1 <1>        -0.0188
     11 N1          1.9286    2.9600    0.7548 N.pl3     1 <1>        -0.3087
     12 C10         3.1740    3.5252    0.7375 C.2       1 <1>         0.0420
     13 C11         3.3995    4.0783    1.9996 C.2       1 <1>         0.0556
     14 C12         4.6747    4.7529    2.2511 C.2       1 <1>         0.0012
     15 N2          4.9477    5.2872    3.4182 N.2       1 <1>        -0.4336
     16 N3          5.5820    4.7978    1.2068 N.pl3     1 <1>        -0.4564
     17 C13         5.2618    4.2268    0.0148 C.2       1 <1>         0.0248
     18 N4          4.1296    3.6290   -0.2038 N.2       1 <1>        -0.3388
     19 N5          6.7912    5.4112    1.3726 N.3       1 <1>         0.3827
     20 C14         1.3328    2.3003   -0.3299 C.ar      1 <1>        -0.0195
     21 C15         1.2962    2.9085   -1.5775 C.ar      1 <1>        -0.0567
     22 C16         0.7139    2.2565   -2.6463 C.ar      1 <1>        -0.0563
     23 C17         0.1565    0.9982   -2.4714 C.ar      1 <1>        -0.0089
     24 C18         0.1882    0.3921   -1.2238 C.ar      1 <1>        -0.0462
     25 C19         0.7745    1.0412   -0.1554 C.ar      1 <1>        -0.0503
     26 O2         -0.4214    0.3588   -3.5229 O.3       1 <1>        -0.4166
     27 C20        -0.4183    1.0413   -4.7783 C.3       1 <1>         0.0244
     28 H1          2.4686    3.8924    9.0928 H         1 <1>         0.0875
     29 H2          3.2455    5.4645    8.7878 H         1 <1>         0.0880
     30 H3          2.0160    5.3124   10.0659 H         1 <1>         0.1192
     31 H4         -0.3539    5.7223    6.1434 H         1 <1>         0.1232
     32 H5          0.0376    5.0740    3.8036 H         1 <1>         0.1331
     33 H6          3.8260    3.4041    4.9103 H         1 <1>         0.1382
     34 H7          3.4297    4.0664    7.2453 H         1 <1>         0.1089
     35 H8          0.3651    2.7778    2.2617 H         1 <1>         0.2046
     36 H9          5.8007    5.7257    3.5633 H         1 <1>         0.2492
     37 H10         5.9830    4.2723   -0.7878 H         1 <1>         0.3023
     38 H11         7.4850    4.7588    1.7061 H         1 <1>         0.0180
     39 H12         7.0925    5.8536    0.5173 H         1 <1>         0.0306
     40 H13         1.7265    3.8898   -1.7128 H         1 <1>         0.1446
     41 H14         0.6886    2.7279   -3.6176 H         1 <1>         0.1218
     42 H15        -0.2462   -0.5873   -1.0882 H         1 <1>         0.1387
     43 H16         0.7984    0.5696    0.8160 H         1 <1>         0.1476
     44 H17        -0.9536    1.9857   -4.6797 H         1 <1>         0.0900
     45 H18         0.6098    1.2365   -5.0834 H         1 <1>         0.0900
     46 H19        -0.9089    0.4224   -5.5296 H         1 <1>         0.1230
@<TRIPOS>BOND
     1    1    2 1
     2    1   28 1
     3    1   29 1
     4    1   30 1
     5    2    3 1
     6    3    8 ar
     7    3    4 ar
     8    4    5 ar
     9    4   31 1
    10    5    6 ar
    11    5   32 1
    12    6    7 ar
    13    6    9 1
    14    7    8 ar
    15    7   33 1
    16    8   34 1
    17    9   13 1
    18    9   10 2
    19   10   11 1
    20   10   35 1
    21   11   12 1
    22   11   20 1
    23   12   18 1
    24   12   13 2
    25   13   14 1
    26   14   15 2
    27   14   16 1
    28   15   36 1
    29   16   17 1
    30   16   19 1
    31   17   18 2
    32   17   37 1
    33   19   38 1
    34   19   39 1
    35   20   25 ar
    36   20   21 ar
    37   21   22 ar
    38   21   40 1
    39   22   23 ar
    40   22   41 1
    41   23   24 ar
    42   23   26 1
    43   24   25 ar
    44   24   42 1
    45   25   43 1
    46   26   27 1
    47   27   44 1
    48   27   45 1
    49   27   46 1
@<TRIPOS>Similarity
1.1367
@<TRIPOS>ShapeSim
0.6308
@<TRIPOS>PharmSim
0.5059
# END
# Name:		ZINC03852042
# Created and modified by SHAFTS on Mon Jun 23 14:53:19 2014

# 

@<TRIPOS>MOLECULE
ZINC03852042
   46    49     0
SMALL
USER_CHARGE


@<TRIPOS>ATOM
      1 C1          2.3168    4.9716    9.0753 C.3       1 <1>         0.0215
      2 O1          1.2944    5.2933    8.1301 O.3       1 <1>        -0.4212
      3 C2          1.5136    4.9343    6.8377 C.ar      1 <1>        -0.0183
      4 C3          0.5604    5.2172    5.8691 C.ar      1 <1>        -0.0599
      5 C4          0.7797    4.8537    4.5567 C.ar      1 <1>        -0.0765
      6 C5          1.9600    4.2014    4.2036 C.ar      1 <1>        -0.0594
      7 C6          2.9128    3.9136    5.1798 C.ar      1 <1>        -0.0767
      8 C7          2.6899    4.2849    6.4894 C.ar      1 <1>        -0.0651
      9 C8          2.1991    3.8092    2.7936 C.2       1 <1>        -0.0225
     10 C9          1.3472    3.1294    1.9820 C.2       1 <1>        -0.0188
     11 N1          1.9286    2.9600    0.7548 N.pl3     1 <1>        -0.3087
     12 C10         3.1740    3.5252    0.7375 C.2       1 <1>         0.0420
     13 C11         3.3995    4.0783    1.9996 C.2       1 <1>         0.0556
     14 C12         4.6747    4.7529    2.2511 C.2       1 <1>         0.0012
     15 N2          4.9477    5.2872    3.4182 N.2       1 <1>        -0.4336
     16 N3          5.5820    4.7978    1.2068 N.pl3     1 <1>        -0.4564
     17 C13         5.2618    4.2268    0.0148 C.2       1 <1>         0.0248
     18 N4          4.1296    3.6290   -0.2038 N.2       1 <1>        -0.3388
     19 N5          6.7912    5.4112    1.3726 N.3       1 <1>         0.3827
     20 C14         1.3328    2.3003   -0.3299 C.ar      1 <1>        -0.0195
     21 C15         1.2962    2.9085   -1.5775 C.ar      1 <1>        -0.0567
     22 C16         0.7139    2.2565   -2.6463 C.ar      1 <1>        -0.0563
     23 C17         0.1565    0.9982   -2.4714 C.ar      1 <1>        -0.0089
     24 C18         0.1882    0.3921   -1.2238 C.ar      1 <1>        -0.0462
     25 C19         0.7745    1.0412   -0.1554 C.ar      1 <1>        -0.0503
     26 O2         -0.4214    0.3588   -3.5229 O.3       1 <1>        -0.4166
     27 C20        -0.4183    1.0413   -4.7783 C.3       1 <1>         0.0244
     28 H1          2.4686    3.8924    9.0928 H         1 <1>         0.0875
     29 H2          3.2455    5.4645    8.7878 H         1 <1>         0.0880
     30 H3          2.0160    5.3124   10.0659 H         1 <1>         0.1192
     31 H4         -0.3539    5.7223    6.1434 H         1 <1>         0.1232
     32 H5          0.0376    5.0740    3.8036 H         1 <1>         0.1331
     33 H6          3.8260    3.4041    4.9103 H         1 <1>         0.1382
     34 H7          3.4297    4.0664    7.2453 H         1 <1>         0.1089
     35 H8          0.3651    2.7778    2.2617 H         1 <1>         0.2046
     36 H9          5.8007    5.7257    3.5633 H         1 <1>         0.2492
     37 H10         5.9830    4.2723   -0.7878 H         1 <1>         0.3023
     38 H11         7.4850    4.7588    1.7061 H         1 <1>         0.0180
     39 H12         7.0925    5.8536    0.5173 H         1 <1>         0.0306
     40 H13         1.7265    3.8898   -1.7128 H         1 <1>         0.1446
     41 H14         0.6886    2.7279   -3.6176 H         1 <1>         0.1218
     42 H15        -0.2462   -0.5873   -1.0882 H         1 <1>         0.1387
     43 H16         0.7984    0.5696    0.8160 H         1 <1>         0.1476
     44 H17        -0.9536    1.9857   -4.6797 H         1 <1>         0.0900
     45 H18         0.6098    1.2365   -5.0834 H         1 <1>         0.0900
     46 H19        -0.9089    0.4224   -5.5296 H         1 <1>         0.1230
@<TRIPOS>BOND
     1    1    2 1
     2    1   28 1
     3    1   29 1
     4    1   30 1
     5    2    3 1
     6    3    8 ar
     7    3    4 ar
     8    4    5 ar
     9    4   31 1
    10    5    6 ar
    11    5   32 1
    12    6    7 ar
    13    6    9 1
    14    7    8 ar
    15    7   33 1
    16    8   34 1
    17    9   13 1
    18    9   10 2
    19   10   11 1
    20   10   35 1
    21   11   12 1
    22   11   20 1
    23   12   18 1
    24   12   13 2
    25   13   14 1
    26   14   15 2
    27   14   16 1
    28   15   36 1
    29   16   17 1
    30   16   19 1
    31   17   18 2
    32   17   37 1
    33   19   38 1
    34   19   39 1
    35   20   25 ar
    36   20   21 ar
    37   21   22 ar
    38   21   40 1
    39   22   23 ar
    40   22   41 1
    41   23   24 ar
    42   23   26 1
    43   24   25 ar
    44   24   42 1
    45   25   43 1
    46   26   27 1
    47   27   44 1
    48   27   45 1
    49   27   46 1
@<TRIPOS>Similarity
1.1367
@<TRIPOS>ShapeSim
0.6308
@<TRIPOS>PharmSim
0.5059
# END
# Name:		ZINC03852042
# Created and modified by SHAFTS on Mon Jun 23 14:53:19 2014

# 

@<TRIPOS>MOLECULE
ZINC03852042
   46    49     0
SMALL
USER_CHARGE


@<TRIPOS>ATOM
      1 C1          2.3168    4.9716    9.0753 C.3       1 <1>         0.0215
      2 O1          1.2944    5.2933    8.1301 O.3       1 <1>        -0.4212
      3 C2          1.5136    4.9343    6.8377 C.ar      1 <1>        -0.0183
      4 C3          0.5604    5.2172    5.8691 C.ar      1 <1>        -0.0599
      5 C4          0.7797    4.8537    4.5567 C.ar      1 <1>        -0.0765
      6 C5          1.9600    4.2014    4.2036 C.ar      1 <1>        -0.0594
      7 C6          2.9128    3.9136    5.1798 C.ar      1 <1>        -0.0767
      8 C7          2.6899    4.2849    6.4894 C.ar      1 <1>        -0.0651
      9 C8          2.1991    3.8092    2.7936 C.2       1 <1>        -0.0225
     10 C9          1.3472    3.1294    1.9820 C.2       1 <1>        -0.0188
     11 N1          1.9286    2.9600    0.7548 N.pl3     1 <1>        -0.3087
     12 C10         3.1740    3.5252    0.7375 C.2       1 <1>         0.0420
     13 C11         3.3995    4.0783    1.9996 C.2       1 <1>         0.0556
     14 C12         4.6747    4.7529    2.2511 C.2       1 <1>         0.0012
     15 N2          4.9477    5.2872    3.4182 N.2       1 <1>        -0.4336
     16 N3          5.5820    4.7978    1.2068 N.pl3     1 <1>        -0.4564
     17 C13         5.2618    4.2268    0.0148 C.2       1 <1>         0.0248
     18 N4          4.1296    3.6290   -0.2038 N.2       1 <1>        -0.3388
     19 N5          6.7912    5.4112    1.3726 N.3       1 <1>         0.3827
     20 C14         1.3328    2.3003   -0.3299 C.ar      1 <1>        -0.0195
     21 C15         1.2962    2.9085   -1.5775 C.ar      1 <1>        -0.0567
     22 C16         0.7139    2.2565   -2.6463 C.ar      1 <1>        -0.0563
     23 C17         0.1565    0.9982   -2.4714 C.ar      1 <1>        -0.0089
     24 C18         0.1882    0.3921   -1.2238 C.ar      1 <1>        -0.0462
     25 C19         0.7745    1.0412   -0.1554 C.ar      1 <1>        -0.0503
     26 O2         -0.4214    0.3588   -3.5229 O.3       1 <1>        -0.4166
     27 C20        -0.4183    1.0413   -4.7783 C.3       1 <1>         0.0244
     28 H1          2.4686    3.8924    9.0928 H         1 <1>         0.0875
     29 H2          3.2455    5.4645    8.7878 H         1 <1>         0.0880
     30 H3          2.0160    5.3124   10.0659 H         1 <1>         0.1192
     31 H4         -0.3539    5.7223    6.1434 H         1 <1>         0.1232
     32 H5          0.0376    5.0740    3.8036 H         1 <1>         0.1331
     33 H6          3.8260    3.4041    4.9103 H         1 <1>         0.1382
     34 H7          3.4297    4.0664    7.2453 H         1 <1>         0.1089
     35 H8          0.3651    2.7778    2.2617 H         1 <1>         0.2046
     36 H9          5.8007    5.7257    3.5633 H         1 <1>         0.2492
     37 H10         5.9830    4.2723   -0.7878 H         1 <1>         0.3023
     38 H11         7.4850    4.7588    1.7061 H         1 <1>         0.0180
     39 H12         7.0925    5.8536    0.5173 H         1 <1>         0.0306
     40 H13         1.7265    3.8898   -1.7128 H         1 <1>         0.1446
     41 H14         0.6886    2.7279   -3.6176 H         1 <1>         0.1218
     42 H15        -0.2462   -0.5873   -1.0882 H         1 <1>         0.1387
     43 H16         0.7984    0.5696    0.8160 H         1 <1>         0.1476
     44 H17        -0.9536    1.9857   -4.6797 H         1 <1>         0.0900
     45 H18         0.6098    1.2365   -5.0834 H         1 <1>         0.0900
     46 H19        -0.9089    0.4224   -5.5296 H         1 <1>         0.1230
@<TRIPOS>BOND
     1    1    2 1
     2    1   28 1
     3    1   29 1
     4    1   30 1
     5    2    3 1
     6    3    8 ar
     7    3    4 ar
     8    4    5 ar
     9    4   31 1
    10    5    6 ar
    11    5   32 1
    12    6    7 ar
    13    6    9 1
    14    7    8 ar
    15    7   33 1
    16    8   34 1
    17    9   13 1
    18    9   10 2
    19   10   11 1
    20   10   35 1
    21   11   12 1
    22   11   20 1
    23   12   18 1
    24   12   13 2
    25   13   14 1
    26   14   15 2
    27   14   16 1
    28   15   36 1
    29   16   17 1
    30   16   19 1
    31   17   18 2
    32   17   37 1
    33   19   38 1
    34   19   39 1
    35   20   25 ar
    36   20   21 ar
    37   21   22 ar
    38   21   40 1
    39   22   23 ar
    40   22   41 1
    41   23   24 ar
    42   23   26 1
    43   24   25 ar
    44   24   42 1
    45   25   43 1
    46   26   27 1
    47   27   44 1
    48   27   45 1
    49   27   46 1
@<TRIPOS>Similarity
1.1367
@<TRIPOS>ShapeSim
0.6308
@<TRIPOS>PharmSim
0.5059
# END
# Name:		ZINC03852042
# Created and modified by SHAFTS on Mon Jun 23 14:53:19 2014

# 

@<TRIPOS>MOLECULE
ZINC03852042
   46    49     0
SMALL
USER_CHARGE


@<TRIPOS>ATOM
      1 C1          2.3168    4.9716    9.0753 C.3       1 <1>         0.0215
      2 O1          1.2944    5.2933    8.1301 O.3       1 <1>        -0.4212
      3 C2          1.5136    4.9343    6.8377 C.ar      1 <1>        -0.0183
      4 C3          0.5604    5.2172    5.8691 C.ar      1 <1>        -0.0599
      5 C4          0.7797    4.8537    4.5567 C.ar      1 <1>        -0.0765
      6 C5          1.9600    4.2014    4.2036 C.ar      1 <1>        -0.0594
      7 C6          2.9128    3.9136    5.1798 C.ar      1 <1>        -0.0767
      8 C7          2.6899    4.2849    6.4894 C.ar      1 <1>        -0.0651
      9 C8          2.1991    3.8092    2.7936 C.2       1 <1>        -0.0225
     10 C9          1.3472    3.1294    1.9820 C.2       1 <1>        -0.0188
     11 N1          1.9286    2.9600    0.7548 N.pl3     1 <1>        -0.3087
     12 C10         3.1740    3.5252    0.7375 C.2       1 <1>         0.0420
     13 C11         3.3995    4.0783    1.9996 C.2       1 <1>         0.0556
     14 C12         4.6747    4.7529    2.2511 C.2       1 <1>         0.0012
     15 N2          4.9477    5.2872    3.4182 N.2       1 <1>        -0.4336
     16 N3          5.5820    4.7978    1.2068 N.pl3     1 <1>        -0.4564
     17 C13         5.2618    4.2268    0.0148 C.2       1 <1>         0.0248
     18 N4          4.1296    3.6290   -0.2038 N.2       1 <1>        -0.3388
     19 N5          6.7912    5.4112    1.3726 N.3       1 <1>         0.3827
     20 C14         1.3328    2.3003   -0.3299 C.ar      1 <1>        -0.0195
     21 C15         1.2962    2.9085   -1.5775 C.ar      1 <1>        -0.0567
     22 C16         0.7139    2.2565   -2.6463 C.ar      1 <1>        -0.0563
     23 C17         0.1565    0.9982   -2.4714 C.ar      1 <1>        -0.0089
     24 C18         0.1882    0.3921   -1.2238 C.ar      1 <1>        -0.0462
     25 C19         0.7745    1.0412   -0.1554 C.ar      1 <1>        -0.0503
     26 O2         -0.4214    0.3588   -3.5229 O.3       1 <1>        -0.4166
     27 C20        -0.4183    1.0413   -4.7783 C.3       1 <1>         0.0244
     28 H1          2.4686    3.8924    9.0928 H         1 <1>         0.0875
     29 H2          3.2455    5.4645    8.7878 H         1 <1>         0.0880
     30 H3          2.0160    5.3124   10.0659 H         1 <1>         0.1192
     31 H4         -0.3539    5.7223    6.1434 H         1 <1>         0.1232
     32 H5          0.0376    5.0740    3.8036 H         1 <1>         0.1331
     33 H6          3.8260    3.4041    4.9103 H         1 <1>         0.1382
     34 H7          3.4297    4.0664    7.2453 H         1 <1>         0.1089
     35 H8          0.3651    2.7778    2.2617 H         1 <1>         0.2046
     36 H9          5.8007    5.7257    3.5633 H         1 <1>         0.2492
     37 H10         5.9830    4.2723   -0.7878 H         1 <1>         0.3023
     38 H11         7.4850    4.7588    1.7061 H         1 <1>         0.0180
     39 H12         7.0925    5.8536    0.5173 H         1 <1>         0.0306
     40 H13         1.7265    3.8898   -1.7128 H         1 <1>         0.1446
     41 H14         0.6886    2.7279   -3.6176 H         1 <1>         0.1218
     42 H15        -0.2462   -0.5873   -1.0882 H         1 <1>         0.1387
     43 H16         0.7984    0.5696    0.8160 H         1 <1>         0.1476
     44 H17        -0.9536    1.9857   -4.6797 H         1 <1>         0.0900
     45 H18         0.6098    1.2365   -5.0834 H         1 <1>         0.0900
     46 H19        -0.9089    0.4224   -5.5296 H         1 <1>         0.1230
@<TRIPOS>BOND
     1    1    2 1
     2    1   28 1
     3    1   29 1
     4    1   30 1
     5    2    3 1
     6    3    8 ar
     7    3    4 ar
     8    4    5 ar
     9    4   31 1
    10    5    6 ar
    11    5   32 1
    12    6    7 ar
    13    6    9 1
    14    7    8 ar
    15    7   33 1
    16    8   34 1
    17    9   13 1
    18    9   10 2
    19   10   11 1
    20   10   35 1
    21   11   12 1
    22   11   20 1
    23   12   18 1
    24   12   13 2
    25   13   14 1
    26   14   15 2
    27   14   16 1
    28   15   36 1
    29   16   17 1
    30   16   19 1
    31   17   18 2
    32   17   37 1
    33   19   38 1
    34   19   39 1
    35   20   25 ar
    36   20   21 ar
    37   21   22 ar
    38   21   40 1
    39   22   23 ar
    40   22   41 1
    41   23   24 ar
    42   23   26 1
    43   24   25 ar
    44   24   42 1
    45   25   43 1
    46   26   27 1
    47   27   44 1
    48   27   45 1
    49   27   46 1
@<TRIPOS>Similarity
1.1367
@<TRIPOS>ShapeSim
0.6308
@<TRIPOS>PharmSim
0.5059
# END
# Name:		ZINC03852042
# Created and modified by SHAFTS on Mon Jun 23 14:53:19 2014

# 

@<TRIPOS>MOLECULE
ZINC03852042
   46    49     0
SMALL
USER_CHARGE


@<TRIPOS>ATOM
      1 C1          2.3168    4.9716    9.0753 C.3       1 <1>         0.0215
      2 O1          1.2944    5.2933    8.1301 O.3       1 <1>        -0.4212
      3 C2          1.5136    4.9343    6.8377 C.ar      1 <1>        -0.0183
      4 C3          0.5604    5.2172    5.8691 C.ar      1 <1>        -0.0599
      5 C4          0.7797    4.8537    4.5567 C.ar      1 <1>        -0.0765
      6 C5          1.9600    4.2014    4.2036 C.ar      1 <1>        -0.0594
      7 C6          2.9128    3.9136    5.1798 C.ar      1 <1>        -0.0767
      8 C7          2.6899    4.2849    6.4894 C.ar      1 <1>        -0.0651
      9 C8          2.1991    3.8092    2.7936 C.2       1 <1>        -0.0225
     10 C9          1.3472    3.1294    1.9820 C.2       1 <1>        -0.0188
     11 N1          1.9286    2.9600    0.7548 N.pl3     1 <1>        -0.3087
     12 C10         3.1740    3.5252    0.7375 C.2       1 <1>         0.0420
     13 C11         3.3995    4.0783    1.9996 C.2       1 <1>         0.0556
     14 C12         4.6747    4.7529    2.2511 C.2       1 <1>         0.0012
     15 N2          4.9477    5.2872    3.4182 N.2       1 <1>        -0.4336
     16 N3          5.5820    4.7978    1.2068 N.pl3     1 <1>        -0.4564
     17 C13         5.2618    4.2268    0.0148 C.2       1 <1>         0.0248
     18 N4          4.1296    3.6290   -0.2038 N.2       1 <1>        -0.3388
     19 N5          6.7912    5.4112    1.3726 N.3       1 <1>         0.3827
     20 C14         1.3328    2.3003   -0.3299 C.ar      1 <1>        -0.0195
     21 C15         1.2962    2.9085   -1.5775 C.ar      1 <1>        -0.0567
     22 C16         0.7139    2.2565   -2.6463 C.ar      1 <1>        -0.0563
     23 C17         0.1565    0.9982   -2.4714 C.ar      1 <1>        -0.0089
     24 C18         0.1882    0.3921   -1.2238 C.ar      1 <1>        -0.0462
     25 C19         0.7745    1.0412   -0.1554 C.ar      1 <1>        -0.0503
     26 O2         -0.4214    0.3588   -3.5229 O.3       1 <1>        -0.4166
     27 C20        -0.4183    1.0413   -4.7783 C.3       1 <1>         0.0244
     28 H1          2.4686    3.8924    9.0928 H         1 <1>         0.0875
     29 H2          3.2455    5.4645    8.7878 H         1 <1>         0.0880
     30 H3          2.0160    5.3124   10.0659 H         1 <1>         0.1192
     31 H4         -0.3539    5.7223    6.1434 H         1 <1>         0.1232
     32 H5          0.0376    5.0740    3.8036 H         1 <1>         0.1331
     33 H6          3.8260    3.4041    4.9103 H         1 <1>         0.1382
     34 H7          3.4297    4.0664    7.2453 H         1 <1>         0.1089
     35 H8          0.3651    2.7778    2.2617 H         1 <1>         0.2046
     36 H9          5.8007    5.7257    3.5633 H         1 <1>         0.2492
     37 H10         5.9830    4.2723   -0.7878 H         1 <1>         0.3023
     38 H11         7.4850    4.7588    1.7061 H         1 <1>         0.0180
     39 H12         7.0925    5.8536    0.5173 H         1 <1>         0.0306
     40 H13         1.7265    3.8898   -1.7128 H         1 <1>         0.1446
     41 H14         0.6886    2.7279   -3.6176 H         1 <1>         0.1218
     42 H15        -0.2462   -0.5873   -1.0882 H         1 <1>         0.1387
     43 H16         0.7984    0.5696    0.8160 H         1 <1>         0.1476
     44 H17        -0.9536    1.9857   -4.6797 H         1 <1>         0.0900
     45 H18         0.6098    1.2365   -5.0834 H         1 <1>         0.0900
     46 H19        -0.9089    0.4224   -5.5296 H         1 <1>         0.1230
@<TRIPOS>BOND
     1    1    2 1
     2    1   28 1
     3    1   29 1
     4    1   30 1
     5    2    3 1
     6    3    8 ar
     7    3    4 ar
     8    4    5 ar
     9    4   31 1
    10    5    6 ar
    11    5   32 1
    12    6    7 ar
    13    6    9 1
    14    7    8 ar
    15    7   33 1
    16    8   34 1
    17    9   13 1
    18    9   10 2
    19   10   11 1
    20   10   35 1
    21   11   12 1
    22   11   20 1
    23   12   18 1
    24   12   13 2
    25   13   14 1
    26   14   15 2
    27   14   16 1
    28   15   36 1
    29   16   17 1
    30   16   19 1
    31   17   18 2
    32   17   37 1
    33   19   38 1
    34   19   39 1
    35   20   25 ar
    36   20   21 ar
    37   21   22 ar
    38   21   40 1
    39   22   23 ar
    40   22   41 1
    41   23   24 ar
    42   23   26 1
    43   24   25 ar
    44   24   42 1
    45   25   43 1
    46   26   27 1
    47   27   44 1
    48   27   45 1
    49   27   46 1
@<TRIPOS>Similarity
1.1367
@<TRIPOS>ShapeSim
0.6308
@<TRIPOS>PharmSim
0.5059
# END
# Name:		ZINC03852042
# Created and modified by SHAFTS on Mon Jun 23 14:53:19 2014

# 

@<TRIPOS>MOLECULE
ZINC03852042
   46    49     0
SMALL
USER_CHARGE


@<TRIPOS>ATOM
      1 C1          2.3168    4.9716    9.0753 C.3       1 <1>         0.0215
      2 O1          1.2944    5.2933    8.1301 O.3       1 <1>        -0.4212
      3 C2          1.5136    4.9343    6.8377 C.ar      1 <1>        -0.0183
      4 C3          0.5604    5.2172    5.8691 C.ar      1 <1>        -0.0599
      5 C4          0.7797    4.8537    4.5567 C.ar      1 <1>        -0.0765
      6 C5          1.9600    4.2014    4.2036 C.ar      1 <1>        -0.0594
      7 C6          2.9128    3.9136    5.1798 C.ar      1 <1>        -0.0767
      8 C7          2.6899    4.2849    6.4894 C.ar      1 <1>        -0.0651
      9 C8          2.1991    3.8092    2.7936 C.2       1 <1>        -0.0225
     10 C9          1.3472    3.1294    1.9820 C.2       1 <1>        -0.0188
     11 N1          1.9286    2.9600    0.7548 N.pl3     1 <1>        -0.3087
     12 C10         3.1740    3.5252    0.7375 C.2       1 <1>         0.0420
     13 C11         3.3995    4.0783    1.9996 C.2       1 <1>         0.0556
     14 C12         4.6747    4.7529    2.2511 C.2       1 <1>         0.0012
     15 N2          4.9477    5.2872    3.4182 N.2       1 <1>        -0.4336
     16 N3          5.5820    4.7978    1.2068 N.pl3     1 <1>        -0.4564
     17 C13         5.2618    4.2268    0.0148 C.2       1 <1>         0.0248
     18 N4          4.1296    3.6290   -0.2038 N.2       1 <1>        -0.3388
     19 N5          6.7912    5.4112    1.3726 N.3       1 <1>         0.3827
     20 C14         1.3328    2.3003   -0.3299 C.ar      1 <1>        -0.0195
     21 C15         1.2962    2.9085   -1.5775 C.ar      1 <1>        -0.0567
     22 C16         0.7139    2.2565   -2.6463 C.ar      1 <1>        -0.0563
     23 C17         0.1565    0.9982   -2.4714 C.ar      1 <1>        -0.0089
     24 C18         0.1882    0.3921   -1.2238 C.ar      1 <1>        -0.0462
     25 C19         0.7745    1.0412   -0.1554 C.ar      1 <1>        -0.0503
     26 O2         -0.4214    0.3588   -3.5229 O.3       1 <1>        -0.4166
     27 C20        -0.4183    1.0413   -4.7783 C.3       1 <1>         0.0244
     28 H1          2.4686    3.8924    9.0928 H         1 <1>         0.0875
     29 H2          3.2455    5.4645    8.7878 H         1 <1>         0.0880
     30 H3          2.0160    5.3124   10.0659 H         1 <1>         0.1192
     31 H4         -0.3539    5.7223    6.1434 H         1 <1>         0.1232
     32 H5          0.0376    5.0740    3.8036 H         1 <1>         0.1331
     33 H6          3.8260    3.4041    4.9103 H         1 <1>         0.1382
     34 H7          3.4297    4.0664    7.2453 H         1 <1>         0.1089
     35 H8          0.3651    2.7778    2.2617 H         1 <1>         0.2046
     36 H9          5.8007    5.7257    3.5633 H         1 <1>         0.2492
     37 H10         5.9830    4.2723   -0.7878 H         1 <1>         0.3023
     38 H11         7.4850    4.7588    1.7061 H         1 <1>         0.0180
     39 H12         7.0925    5.8536    0.5173 H         1 <1>         0.0306
     40 H13         1.7265    3.8898   -1.7128 H         1 <1>         0.1446
     41 H14         0.6886    2.7279   -3.6176 H         1 <1>         0.1218
     42 H15        -0.2462   -0.5873   -1.0882 H         1 <1>         0.1387
     43 H16         0.7984    0.5696    0.8160 H         1 <1>         0.1476
     44 H17        -0.9536    1.9857   -4.6797 H         1 <1>         0.0900
     45 H18         0.6098    1.2365   -5.0834 H         1 <1>         0.0900
     46 H19        -0.9089    0.4224   -5.5296 H         1 <1>         0.1230
@<TRIPOS>BOND
     1    1    2 1
     2    1   28 1
     3    1   29 1
     4    1   30 1
     5    2    3 1
     6    3    8 ar
     7    3    4 ar
     8    4    5 ar
     9    4   31 1
    10    5    6 ar
    11    5   32 1
    12    6    7 ar
    13    6    9 1
    14    7    8 ar
    15    7   33 1
    16    8   34 1
    17    9   13 1
    18    9   10 2
    19   10   11 1
    20   10   35 1
    21   11   12 1
    22   11   20 1
    23   12   18 1
    24   12   13 2
    25   13   14 1
    26   14   15 2
    27   14   16 1
    28   15   36 1
    29   16   17 1
    30   16   19 1
    31   17   18 2
    32   17   37 1
    33   19   38 1
    34   19   39 1
    35   20   25 ar
    36   20   21 ar
    37   21   22 ar
    38   21   40 1
    39   22   23 ar
    40   22   41 1
    41   23   24 ar
    42   23   26 1
    43   24   25 ar
    44   24   42 1
    45   25   43 1
    46   26   27 1
    47   27   44 1
    48   27   45 1
    49   27   46 1
@<TRIPOS>Similarity
1.1367
@<TRIPOS>ShapeSim
0.6308
@<TRIPOS>PharmSim
0.5059
# END
# Name:		ZINC03852042
# Created and modified by SHAFTS on Mon Jun 23 14:53:19 2014

# 

@<TRIPOS>MOLECULE
ZINC03852042
   46    49     0
SMALL
USER_CHARGE


@<TRIPOS>ATOM
      1 C1          2.3168    4.9716    9.0753 C.3       1 <1>         0.0215
      2 O1          1.2944    5.2933    8.1301 O.3       1 <1>        -0.4212
      3 C2          1.5136    4.9343    6.8377 C.ar      1 <1>        -0.0183
      4 C3          0.5604    5.2172    5.8691 C.ar      1 <1>        -0.0599
      5 C4          0.7797    4.8537    4.5567 C.ar      1 <1>        -0.0765
      6 C5          1.9600    4.2014    4.2036 C.ar      1 <1>        -0.0594
      7 C6          2.9128    3.9136    5.1798 C.ar      1 <1>        -0.0767
      8 C7          2.6899    4.2849    6.4894 C.ar      1 <1>        -0.0651
      9 C8          2.1991    3.8092    2.7936 C.2       1 <1>        -0.0225
     10 C9          1.3472    3.1294    1.9820 C.2       1 <1>        -0.0188
     11 N1          1.9286    2.9600    0.7548 N.pl3     1 <1>        -0.3087
     12 C10         3.1740    3.5252    0.7375 C.2       1 <1>         0.0420
     13 C11         3.3995    4.0783    1.9996 C.2       1 <1>         0.0556
     14 C12         4.6747    4.7529    2.2511 C.2       1 <1>         0.0012
     15 N2          4.9477    5.2872    3.4182 N.2       1 <1>        -0.4336
     16 N3          5.5820    4.7978    1.2068 N.pl3     1 <1>        -0.4564
     17 C13         5.2618    4.2268    0.0148 C.2       1 <1>         0.0248
     18 N4          4.1296    3.6290   -0.2038 N.2       1 <1>        -0.3388
     19 N5          6.7912    5.4112    1.3726 N.3       1 <1>         0.3827
     20 C14         1.3328    2.3003   -0.3299 C.ar      1 <1>        -0.0195
     21 C15         1.2962    2.9085   -1.5775 C.ar      1 <1>        -0.0567
     22 C16         0.7139    2.2565   -2.6463 C.ar      1 <1>        -0.0563
     23 C17         0.1565    0.9982   -2.4714 C.ar      1 <1>        -0.0089
     24 C18         0.1882    0.3921   -1.2238 C.ar      1 <1>        -0.0462
     25 C19         0.7745    1.0412   -0.1554 C.ar      1 <1>        -0.0503
     26 O2         -0.4214    0.3588   -3.5229 O.3       1 <1>        -0.4166
     27 C20        -0.4183    1.0413   -4.7783 C.3       1 <1>         0.0244
     28 H1          2.4686    3.8924    9.0928 H         1 <1>         0.0875
     29 H2          3.2455    5.4645    8.7878 H         1 <1>         0.0880
     30 H3          2.0160    5.3124   10.0659 H         1 <1>         0.1192
     31 H4         -0.3539    5.7223    6.1434 H         1 <1>         0.1232
     32 H5          0.0376    5.0740    3.8036 H         1 <1>         0.1331
     33 H6          3.8260    3.4041    4.9103 H         1 <1>         0.1382
     34 H7          3.4297    4.0664    7.2453 H         1 <1>         0.1089
     35 H8          0.3651    2.7778    2.2617 H         1 <1>         0.2046
     36 H9          5.8007    5.7257    3.5633 H         1 <1>         0.2492
     37 H10         5.9830    4.2723   -0.7878 H         1 <1>         0.3023
     38 H11         7.4850    4.7588    1.7061 H         1 <1>         0.0180
     39 H12         7.0925    5.8536    0.5173 H         1 <1>         0.0306
     40 H13         1.7265    3.8898   -1.7128 H         1 <1>         0.1446
     41 H14         0.6886    2.7279   -3.6176 H         1 <1>         0.1218
     42 H15        -0.2462   -0.5873   -1.0882 H         1 <1>         0.1387
     43 H16         0.7984    0.5696    0.8160 H         1 <1>         0.1476
     44 H17        -0.9536    1.9857   -4.6797 H         1 <1>         0.0900
     45 H18         0.6098    1.2365   -5.0834 H         1 <1>         0.0900
     46 H19        -0.9089    0.4224   -5.5296 H         1 <1>         0.1230
@<TRIPOS>BOND
     1    1    2 1
     2    1   28 1
     3    1   29 1
     4    1   30 1
     5    2    3 1
     6    3    8 ar
     7    3    4 ar
     8    4    5 ar
     9    4   31 1
    10    5    6 ar
    11    5   32 1
    12    6    7 ar
    13    6    9 1
    14    7    8 ar
    15    7   33 1
    16    8   34 1
    17    9   13 1
    18    9   10 2
    19   10   11 1
    20   10   35 1
    21   11   12 1
    22   11   20 1
    23   12   18 1
    24   12   13 2
    25   13   14 1
    26   14   15 2
    27   14   16 1
    28   15   36 1
    29   16   17 1
    30   16   19 1
    31   17   18 2
    32   17   37 1
    33   19   38 1
    34   19   39 1
    35   20   25 ar
    36   20   21 ar
    37   21   22 ar
    38   21   40 1
    39   22   23 ar
    40   22   41 1
    41   23   24 ar
    42   23   26 1
    43   24   25 ar
    44   24   42 1
    45   25   43 1
    46   26   27 1
    47   27   44 1
    48   27   45 1
    49   27   46 1
@<TRIPOS>Similarity
1.1367
@<TRIPOS>ShapeSim
0.6308
@<TRIPOS>PharmSim
0.5059
# END
# Name:		ZINC03852042
# Created and modified by SHAFTS on Mon Jun 23 14:53:19 2014

# 

@<TRIPOS>MOLECULE
ZINC03852042
   46    49     0
SMALL
USER_CHARGE


@<TRIPOS>ATOM
      1 C1          2.3168    4.9716    9.0753 C.3       1 <1>         0.0215
      2 O1          1.2944    5.2933    8.1301 O.3       1 <1>        -0.4212
      3 C2          1.5136    4.9343    6.8377 C.ar      1 <1>        -0.0183
      4 C3          0.5604    5.2172    5.8691 C.ar      1 <1>        -0.0599
      5 C4          0.7797    4.8537    4.5567 C.ar      1 <1>        -0.0765
      6 C5          1.9600    4.2014    4.2036 C.ar      1 <1>        -0.0594
      7 C6          2.9128    3.9136    5.1798 C.ar      1 <1>        -0.0767
      8 C7          2.6899    4.2849    6.4894 C.ar      1 <1>        -0.0651
      9 C8          2.1991    3.8092    2.7936 C.2       1 <1>        -0.0225
     10 C9          1.3472    3.1294    1.9820 C.2       1 <1>        -0.0188
     11 N1          1.9286    2.9600    0.7548 N.pl3     1 <1>        -0.3087
     12 C10         3.1740    3.5252    0.7375 C.2       1 <1>         0.0420
     13 C11         3.3995    4.0783    1.9996 C.2       1 <1>         0.0556
     14 C12         4.6747    4.7529    2.2511 C.2       1 <1>         0.0012
     15 N2          4.9477    5.2872    3.4182 N.2       1 <1>        -0.4336
     16 N3          5.5820    4.7978    1.2068 N.pl3     1 <1>        -0.4564
     17 C13         5.2618    4.2268    0.0148 C.2       1 <1>         0.0248
     18 N4          4.1296    3.6290   -0.2038 N.2       1 <1>        -0.3388
     19 N5          6.7912    5.4112    1.3726 N.3       1 <1>         0.3827
     20 C14         1.3328    2.3003   -0.3299 C.ar      1 <1>        -0.0195
     21 C15         1.2962    2.9085   -1.5775 C.ar      1 <1>        -0.0567
     22 C16         0.7139    2.2565   -2.6463 C.ar      1 <1>        -0.0563
     23 C17         0.1565    0.9982   -2.4714 C.ar      1 <1>        -0.0089
     24 C18         0.1882    0.3921   -1.2238 C.ar      1 <1>        -0.0462
     25 C19         0.7745    1.0412   -0.1554 C.ar      1 <1>        -0.0503
     26 O2         -0.4214    0.3588   -3.5229 O.3       1 <1>        -0.4166
     27 C20        -0.4183    1.0413   -4.7783 C.3       1 <1>         0.0244
     28 H1          2.4686    3.8924    9.0928 H         1 <1>         0.0875
     29 H2          3.2455    5.4645    8.7878 H         1 <1>         0.0880
     30 H3          2.0160    5.3124   10.0659 H         1 <1>         0.1192
     31 H4         -0.3539    5.7223    6.1434 H         1 <1>         0.1232
     32 H5          0.0376    5.0740    3.8036 H         1 <1>         0.1331
     33 H6          3.8260    3.4041    4.9103 H         1 <1>         0.1382
     34 H7          3.4297    4.0664    7.2453 H         1 <1>         0.1089
     35 H8          0.3651    2.7778    2.2617 H         1 <1>         0.2046
     36 H9          5.8007    5.7257    3.5633 H         1 <1>         0.2492
     37 H10         5.9830    4.2723   -0.7878 H         1 <1>         0.3023
     38 H11         7.4850    4.7588    1.7061 H         1 <1>         0.0180
     39 H12         7.0925    5.8536    0.5173 H         1 <1>         0.0306
     40 H13         1.7265    3.8898   -1.7128 H         1 <1>         0.1446
     41 H14         0.6886    2.7279   -3.6176 H         1 <1>         0.1218
     42 H15        -0.2462   -0.5873   -1.0882 H         1 <1>         0.1387
     43 H16         0.7984    0.5696    0.8160 H         1 <1>         0.1476
     44 H17        -0.9536    1.9857   -4.6797 H         1 <1>         0.0900
     45 H18         0.6098    1.2365   -5.0834 H         1 <1>         0.0900
     46 H19        -0.9089    0.4224   -5.5296 H         1 <1>         0.1230
@<TRIPOS>BOND
     1    1    2 1
     2    1   28 1
     3    1   29 1
     4    1   30 1
     5    2    3 1
     6    3    8 ar
     7    3    4 ar
     8    4    5 ar
     9    4   31 1
    10    5    6 ar
    11    5   32 1
    12    6    7 ar
    13    6    9 1
    14    7    8 ar
    15    7   33 1
    16    8   34 1
    17    9   13 1
    18    9   10 2
    19   10   11 1
    20   10   35 1
    21   11   12 1
    22   11   20 1
    23   12   18 1
    24   12   13 2
    25   13   14 1
    26   14   15 2
    27   14   16 1
    28   15   36 1
    29   16   17 1
    30   16   19 1
    31   17   18 2
    32   17   37 1
    33   19   38 1
    34   19   39 1
    35   20   25 ar
    36   20   21 ar
    37   21   22 ar
    38   21   40 1
    39   22   23 ar
    40   22   41 1
    41   23   24 ar
    42   23   26 1
    43   24   25 ar
    44   24   42 1
    45   25   43 1
    46   26   27 1
    47   27   44 1
    48   27   45 1
    49   27   46 1
@<TRIPOS>Similarity
1.1367
@<TRIPOS>ShapeSim
0.6308
@<TRIPOS>PharmSim
0.5059
# END
# Name:		ZINC03852042
# Created and modified by SHAFTS on Mon Jun 23 14:53:19 2014

# 

@<TRIPOS>MOLECULE
ZINC03852042
   46    49     0
SMALL
USER_CHARGE


@<TRIPOS>ATOM
      1 C1          2.3168    4.9716    9.0753 C.3       1 <1>         0.0215
      2 O1          1.2944    5.2933    8.1301 O.3       1 <1>        -0.4212
      3 C2          1.5136    4.9343    6.8377 C.ar      1 <1>        -0.0183
      4 C3          0.5604    5.2172    5.8691 C.ar      1 <1>        -0.0599
      5 C4          0.7797    4.8537    4.5567 C.ar      1 <1>        -0.0765
      6 C5          1.9600    4.2014    4.2036 C.ar      1 <1>        -0.0594
      7 C6          2.9128    3.9136    5.1798 C.ar      1 <1>        -0.0767
      8 C7          2.6899    4.2849    6.4894 C.ar      1 <1>        -0.0651
      9 C8          2.1991    3.8092    2.7936 C.2       1 <1>        -0.0225
     10 C9          1.3472    3.1294    1.9820 C.2       1 <1>        -0.0188
     11 N1          1.9286    2.9600    0.7548 N.pl3     1 <1>        -0.3087
     12 C10         3.1740    3.5252    0.7375 C.2       1 <1>         0.0420
     13 C11         3.3995    4.0783    1.9996 C.2       1 <1>         0.0556
     14 C12         4.6747    4.7529    2.2511 C.2       1 <1>         0.0012
     15 N2          4.9477    5.2872    3.4182 N.2       1 <1>        -0.4336
     16 N3          5.5820    4.7978    1.2068 N.pl3     1 <1>        -0.4564
     17 C13         5.2618    4.2268    0.0148 C.2       1 <1>         0.0248
     18 N4          4.1296    3.6290   -0.2038 N.2       1 <1>        -0.3388
     19 N5          6.7912    5.4112    1.3726 N.3       1 <1>         0.3827
     20 C14         1.3328    2.3003   -0.3299 C.ar      1 <1>        -0.0195
     21 C15         1.2962    2.9085   -1.5775 C.ar      1 <1>        -0.0567
     22 C16         0.7139    2.2565   -2.6463 C.ar      1 <1>        -0.0563
     23 C17         0.1565    0.9982   -2.4714 C.ar      1 <1>        -0.0089
     24 C18         0.1882    0.3921   -1.2238 C.ar      1 <1>        -0.0462
     25 C19         0.7745    1.0412   -0.1554 C.ar      1 <1>        -0.0503
     26 O2         -0.4214    0.3588   -3.5229 O.3       1 <1>        -0.4166
     27 C20        -0.4183    1.0413   -4.7783 C.3       1 <1>         0.0244
     28 H1          2.4686    3.8924    9.0928 H         1 <1>         0.0875
     29 H2          3.2455    5.4645    8.7878 H         1 <1>         0.0880
     30 H3          2.0160    5.3124   10.0659 H         1 <1>         0.1192
     31 H4         -0.3539    5.7223    6.1434 H         1 <1>         0.1232
     32 H5          0.0376    5.0740    3.8036 H         1 <1>         0.1331
     33 H6          3.8260    3.4041    4.9103 H         1 <1>         0.1382
     34 H7          3.4297    4.0664    7.2453 H         1 <1>         0.1089
     35 H8          0.3651    2.7778    2.2617 H         1 <1>         0.2046
     36 H9          5.8007    5.7257    3.5633 H         1 <1>         0.2492
     37 H10         5.9830    4.2723   -0.7878 H         1 <1>         0.3023
     38 H11         7.4850    4.7588    1.7061 H         1 <1>         0.0180
     39 H12         7.0925    5.8536    0.5173 H         1 <1>         0.0306
     40 H13         1.7265    3.8898   -1.7128 H         1 <1>         0.1446
     41 H14         0.6886    2.7279   -3.6176 H         1 <1>         0.1218
     42 H15        -0.2462   -0.5873   -1.0882 H         1 <1>         0.1387
     43 H16         0.7984    0.5696    0.8160 H         1 <1>         0.1476
     44 H17        -0.9536    1.9857   -4.6797 H         1 <1>         0.0900
     45 H18         0.6098    1.2365   -5.0834 H         1 <1>         0.0900
     46 H19        -0.9089    0.4224   -5.5296 H         1 <1>         0.1230
@<TRIPOS>BOND
     1    1    2 1
     2    1   28 1
     3    1   29 1
     4    1   30 1
     5    2    3 1
     6    3    8 ar
     7    3    4 ar
     8    4    5 ar
     9    4   31 1
    10    5    6 ar
    11    5   32 1
    12    6    7 ar
    13    6    9 1
    14    7    8 ar
    15    7   33 1
    16    8   34 1
    17    9   13 1
    18    9   10 2
    19   10   11 1
    20   10   35 1
    21   11   12 1
    22   11   20 1
    23   12   18 1
    24   12   13 2
    25   13   14 1
    26   14   15 2
    27   14   16 1
    28   15   36 1
    29   16   17 1
    30   16   19 1
    31   17   18 2
    32   17   37 1
    33   19   38 1
    34   19   39 1
    35   20   25 ar
    36   20   21 ar
    37   21   22 ar
    38   21   40 1
    39   22   23 ar
    40   22   41 1
    41   23   24 ar
    42   23   26 1
    43   24   25 ar
    44   24   42 1
    45   25   43 1
    46   26   27 1
    47   27   44 1
    48   27   45 1
    49   27   46 1
@<TRIPOS>Similarity
1.1367
@<TRIPOS>ShapeSim
0.6308
@<TRIPOS>PharmSim
0.5059
# END
# Name:		ZINC03852042
# Created and modified by SHAFTS on Mon Jun 23 14:53:19 2014

# 

@<TRIPOS>MOLECULE
ZINC03852042
   46    49     0
SMALL
USER_CHARGE


@<TRIPOS>ATOM
      1 C1          2.3168    4.9716    9.0753 C.3       1 <1>         0.0215
      2 O1          1.2944    5.2933    8.1301 O.3       1 <1>        -0.4212
      3 C2          1.5136    4.9343    6.8377 C.ar      1 <1>        -0.0183
      4 C3          0.5604    5.2172    5.8691 C.ar      1 <1>        -0.0599
      5 C4          0.7797    4.8537    4.5567 C.ar      1 <1>        -0.0765
      6 C5          1.9600    4.2014    4.2036 C.ar      1 <1>        -0.0594
      7 C6          2.9128    3.9136    5.1798 C.ar      1 <1>        -0.0767
      8 C7          2.6899    4.2849    6.4894 C.ar      1 <1>        -0.0651
      9 C8          2.1991    3.8092    2.7936 C.2       1 <1>        -0.0225
     10 C9          1.3472    3.1294    1.9820 C.2       1 <1>        -0.0188
     11 N1          1.9286    2.9600    0.7548 N.pl3     1 <1>        -0.3087
     12 C10         3.1740    3.5252    0.7375 C.2       1 <1>         0.0420
     13 C11         3.3995    4.0783    1.9996 C.2       1 <1>         0.0556
     14 C12         4.6747    4.7529    2.2511 C.2       1 <1>         0.0012
     15 N2          4.9477    5.2872    3.4182 N.2       1 <1>        -0.4336
     16 N3          5.5820    4.7978    1.2068 N.pl3     1 <1>        -0.4564
     17 C13         5.2618    4.2268    0.0148 C.2       1 <1>         0.0248
     18 N4          4.1296    3.6290   -0.2038 N.2       1 <1>        -0.3388
     19 N5          6.7912    5.4112    1.3726 N.3       1 <1>         0.3827
     20 C14         1.3328    2.3003   -0.3299 C.ar      1 <1>        -0.0195
     21 C15         1.2962    2.9085   -1.5775 C.ar      1 <1>        -0.0567
     22 C16         0.7139    2.2565   -2.6463 C.ar      1 <1>        -0.0563
     23 C17         0.1565    0.9982   -2.4714 C.ar      1 <1>        -0.0089
     24 C18         0.1882    0.3921   -1.2238 C.ar      1 <1>        -0.0462
     25 C19         0.7745    1.0412   -0.1554 C.ar      1 <1>        -0.0503
     26 O2         -0.4214    0.3588   -3.5229 O.3       1 <1>        -0.4166
     27 C20        -0.4183    1.0413   -4.7783 C.3       1 <1>         0.0244
     28 H1          2.4686    3.8924    9.0928 H         1 <1>         0.0875
     29 H2          3.2455    5.4645    8.7878 H         1 <1>         0.0880
     30 H3          2.0160    5.3124   10.0659 H         1 <1>         0.1192
     31 H4         -0.3539    5.7223    6.1434 H         1 <1>         0.1232
     32 H5          0.0376    5.0740    3.8036 H         1 <1>         0.1331
     33 H6          3.8260    3.4041    4.9103 H         1 <1>         0.1382
     34 H7          3.4297    4.0664    7.2453 H         1 <1>         0.1089
     35 H8          0.3651    2.7778    2.2617 H         1 <1>         0.2046
     36 H9          5.8007    5.7257    3.5633 H         1 <1>         0.2492
     37 H10         5.9830    4.2723   -0.7878 H         1 <1>         0.3023
     38 H11         7.4850    4.7588    1.7061 H         1 <1>         0.0180
     39 H12         7.0925    5.8536    0.5173 H         1 <1>         0.0306
     40 H13         1.7265    3.8898   -1.7128 H         1 <1>         0.1446
     41 H14         0.6886    2.7279   -3.6176 H         1 <1>         0.1218
     42 H15        -0.2462   -0.5873   -1.0882 H         1 <1>         0.1387
     43 H16         0.7984    0.5696    0.8160 H         1 <1>         0.1476
     44 H17        -0.9536    1.9857   -4.6797 H         1 <1>         0.0900
     45 H18         0.6098    1.2365   -5.0834 H         1 <1>         0.0900
     46 H19        -0.9089    0.4224   -5.5296 H         1 <1>         0.1230
@<TRIPOS>BOND
     1    1    2 1
     2    1   28 1
     3    1   29 1
     4    1   30 1
     5    2    3 1
     6    3    8 ar
     7    3    4 ar
     8    4    5 ar
     9    4   31 1
    10    5    6 ar
    11    5   32 1
    12    6    7 ar
    13    6    9 1
    14    7    8 ar
    15    7   33 1
    16    8   34 1
    17    9   13 1
    18    9   10 2
    19   10   11 1
    20   10   35 1
    21   11   12 1
    22   11   20 1
    23   12   18 1
    24   12   13 2
    25   13   14 1
    26   14   15 2
    27   14   16 1
    28   15   36 1
    29   16   17 1
    30   16   19 1
    31   17   18 2
    32   17   37 1
    33   19   38 1
    34   19   39 1
    35   20   25 ar
    36   20   21 ar
    37   21   22 ar
    38   21   40 1
    39   22   23 ar
    40   22   41 1
    41   23   24 ar
    42   23   26 1
    43   24   25 ar
    44   24   42 1
    45   25   43 1
    46   26   27 1
    47   27   44 1
    48   27   45 1
    49   27   46 1
@<TRIPOS>Similarity
1.1367
@<TRIPOS>ShapeSim
0.6308
@<TRIPOS>PharmSim
0.5059
# END
# Name:		ZINC03852042
# Created and modified by SHAFTS on Mon Jun 23 14:53:19 2014

# 

@<TRIPOS>MOLECULE
ZINC03852042
   46    49     0
SMALL
USER_CHARGE


@<TRIPOS>ATOM
      1 C1          2.3168    4.9716    9.0753 C.3       1 <1>         0.0215
      2 O1          1.2944    5.2933    8.1301 O.3       1 <1>        -0.4212
      3 C2          1.5136    4.9343    6.8377 C.ar      1 <1>        -0.0183
      4 C3          0.5604    5.2172    5.8691 C.ar      1 <1>        -0.0599
      5 C4          0.7797    4.8537    4.5567 C.ar      1 <1>        -0.0765
      6 C5          1.9600    4.2014    4.2036 C.ar      1 <1>        -0.0594
      7 C6          2.9128    3.9136    5.1798 C.ar      1 <1>        -0.0767
      8 C7          2.6899    4.2849    6.4894 C.ar      1 <1>        -0.0651
      9 C8          2.1991    3.8092    2.7936 C.2       1 <1>        -0.0225
     10 C9          1.3472    3.1294    1.9820 C.2       1 <1>        -0.0188
     11 N1          1.9286    2.9600    0.7548 N.pl3     1 <1>        -0.3087
     12 C10         3.1740    3.5252    0.7375 C.2       1 <1>         0.0420
     13 C11         3.3995    4.0783    1.9996 C.2       1 <1>         0.0556
     14 C12         4.6747    4.7529    2.2511 C.2       1 <1>         0.0012
     15 N2          4.9477    5.2872    3.4182 N.2       1 <1>        -0.4336
     16 N3          5.5820    4.7978    1.2068 N.pl3     1 <1>        -0.4564
     17 C13         5.2618    4.2268    0.0148 C.2       1 <1>         0.0248
     18 N4          4.1296    3.6290   -0.2038 N.2       1 <1>        -0.3388
     19 N5          6.7912    5.4112    1.3726 N.3       1 <1>         0.3827
     20 C14         1.3328    2.3003   -0.3299 C.ar      1 <1>        -0.0195
     21 C15         1.2962    2.9085   -1.5775 C.ar      1 <1>        -0.0567
     22 C16         0.7139    2.2565   -2.6463 C.ar      1 <1>        -0.0563
     23 C17         0.1565    0.9982   -2.4714 C.ar      1 <1>        -0.0089
     24 C18         0.1882    0.3921   -1.2238 C.ar      1 <1>        -0.0462
     25 C19         0.7745    1.0412   -0.1554 C.ar      1 <1>        -0.0503
     26 O2         -0.4214    0.3588   -3.5229 O.3       1 <1>        -0.4166
     27 C20        -0.4183    1.0413   -4.7783 C.3       1 <1>         0.0244
     28 H1          2.4686    3.8924    9.0928 H         1 <1>         0.0875
     29 H2          3.2455    5.4645    8.7878 H         1 <1>         0.0880
     30 H3          2.0160    5.3124   10.0659 H         1 <1>         0.1192
     31 H4         -0.3539    5.7223    6.1434 H         1 <1>         0.1232
     32 H5          0.0376    5.0740    3.8036 H         1 <1>         0.1331
     33 H6          3.8260    3.4041    4.9103 H         1 <1>         0.1382
     34 H7          3.4297    4.0664    7.2453 H         1 <1>         0.1089
     35 H8          0.3651    2.7778    2.2617 H         1 <1>         0.2046
     36 H9          5.8007    5.7257    3.5633 H         1 <1>         0.2492
     37 H10         5.9830    4.2723   -0.7878 H         1 <1>         0.3023
     38 H11         7.4850    4.7588    1.7061 H         1 <1>         0.0180
     39 H12         7.0925    5.8536    0.5173 H         1 <1>         0.0306
     40 H13         1.7265    3.8898   -1.7128 H         1 <1>         0.1446
     41 H14         0.6886    2.7279   -3.6176 H         1 <1>         0.1218
     42 H15        -0.2462   -0.5873   -1.0882 H         1 <1>         0.1387
     43 H16         0.7984    0.5696    0.8160 H         1 <1>         0.1476
     44 H17        -0.9536    1.9857   -4.6797 H         1 <1>         0.0900
     45 H18         0.6098    1.2365   -5.0834 H         1 <1>         0.0900
     46 H19        -0.9089    0.4224   -5.5296 H         1 <1>         0.1230
@<TRIPOS>BOND
     1    1    2 1
     2    1   28 1
     3    1   29 1
     4    1   30 1
     5    2    3 1
     6    3    8 ar
     7    3    4 ar
     8    4    5 ar
     9    4   31 1
    10    5    6 ar
    11    5   32 1
    12    6    7 ar
    13    6    9 1
    14    7    8 ar
    15    7   33 1
    16    8   34 1
    17    9   13 1
    18    9   10 2
    19   10   11 1
    20   10   35 1
    21   11   12 1
    22   11   20 1
    23   12   18 1
    24   12   13 2
    25   13   14 1
    26   14   15 2
    27   14   16 1
    28   15   36 1
    29   16   17 1
    30   16   19 1
    31   17   18 2
    32   17   37 1
    33   19   38 1
    34   19   39 1
    35   20   25 ar
    36   20   21 ar
    37   21   22 ar
    38   21   40 1
    39   22   23 ar
    40   22   41 1
    41   23   24 ar
    42   23   26 1
    43   24   25 ar
    44   24   42 1
    45   25   43 1
    46   26   27 1
    47   27   44 1
    48   27   45 1
    49   27   46 1
@<TRIPOS>Similarity
1.1367
@<TRIPOS>ShapeSim
0.6308
@<TRIPOS>PharmSim
0.5059
# END
# Name:		ZINC03902181
# Created and modified by SHAFTS on Mon Jun 23 14:53:19 2014

# 

@<TRIPOS>MOLECULE
ZINC03902181
   42    45     0
SMALL
USER_CHARGE


@<TRIPOS>ATOM
      1 C1          1.0082    5.3205    6.0255 C.ar      1 <1>        -0.1051
      2 C2          1.8319    4.2313    6.2507 C.ar      1 <1>        -0.1013
      3 C3          2.5104    3.6470    5.2021 C.ar      1 <1>        -0.0916
      4 C4          2.3642    4.1574    3.9086 C.ar      1 <1>        -0.0777
      5 C5          1.5346    5.2615    3.6900 C.ar      1 <1>        -0.0944
      6 C6          0.8585    5.8316    4.7480 C.ar      1 <1>        -0.1030
      7 C7          3.0851    3.5394    2.7834 C.2       1 <1>        -0.0547
      8 C8          2.9418    4.0342    1.5380 C.2       1 <1>         0.0021
      9 C9          3.6588    3.4195    0.4190 C.2       1 <1>         0.0596
     10 N1          4.3526    2.3275    0.6426 N.2       1 <1>        -0.3520
     11 C10         5.0353    1.7105   -0.3399 C.ar      1 <1>        -0.0073
     12 C11         5.7729    0.5468   -0.0976 C.ar      1 <1>        -0.0510
     13 C12         6.4529   -0.0515   -1.1202 C.ar      1 <1>        -0.0840
     14 C13         6.4245    0.4783   -2.4041 C.ar      1 <1>        -0.0899
     15 C14         5.7072    1.6233   -2.6747 C.ar      1 <1>        -0.0639
     16 C15         5.0057    2.2509   -1.6468 C.ar      1 <1>         0.0558
     17 C16         4.2236    3.4736   -1.8772 C.2       1 <1>         0.1531
     18 O1          4.1613    3.9847   -2.9803 O.2       1 <1>        -0.4532
     19 N2          3.5711    4.0077   -0.8185 N.am      1 <1>        -0.2358
     20 C17         2.8066    5.1699   -0.9851 C.ar      1 <1>        -0.0119
     21 C18         3.4006    6.4177   -0.8485 C.ar      1 <1>        -0.0528
     22 C19         2.6479    7.5626   -1.0185 C.ar      1 <1>        -0.0529
     23 C20         1.2957    7.4666   -1.3143 C.ar      1 <1>        -0.0318
     24 C21         0.7003    6.2202   -1.4452 C.ar      1 <1>        -0.0533
     25 C22         1.4531    5.0746   -1.2812 C.ar      1 <1>        -0.0533
     26 O2          0.5538    8.5943   -1.4755 O.3       1 <1>        -0.4350
     27 H1          0.4794    5.7739    6.8509 H         1 <1>         0.1194
     28 H2          1.9436    3.8381    7.2504 H         1 <1>         0.1186
     29 H3          3.1526    2.7970    5.3793 H         1 <1>         0.1287
     30 H4          1.4205    5.6644    2.6945 H         1 <1>         0.1227
     31 H5          0.2138    6.6816    4.5802 H         1 <1>         0.1171
     32 H6          3.7288    2.6895    2.9561 H         1 <1>         0.1632
     33 H7          2.2982    4.8842    1.3654 H         1 <1>         0.1484
     34 H8          5.8051    0.1229    0.8952 H         1 <1>         0.1436
     35 H9          7.0204   -0.9499   -0.9278 H         1 <1>         0.1367
     36 H10         6.9701   -0.0115   -3.1971 H         1 <1>         0.1233
     37 H11         5.6884    2.0306   -3.6748 H         1 <1>         0.1455
     38 H12         4.4520    6.4926   -0.6135 H         1 <1>         0.1416
     39 H13         3.1107    8.5330   -0.9167 H         1 <1>         0.1373
     40 H14        -0.3523    6.1463   -1.6752 H         1 <1>         0.1371
     41 H15         0.9894    4.1045   -1.3827 H         1 <1>         0.1413
     42 H16         0.1507    8.9199   -0.6591 H         1 <1>         0.3607
@<TRIPOS>BOND
     1    1    6 ar
     2    1    2 ar
     3    1   27 1
     4    2    3 ar
     5    2   28 1
     6    3    4 ar
     7    3   29 1
     8    4    5 ar
     9    4    7 1
    10    5    6 ar
    11    5   30 1
    12    6   31 1
    13    7    8 2
    14    7   32 1
    15    8    9 1
    16    8   33 1
    17    9   19 1
    18    9   10 2
    19   10   11 1
    20   11   16 ar
    21   11   12 ar
    22   12   13 ar
    23   12   34 1
    24   13   14 ar
    25   13   35 1
    26   14   15 ar
    27   14   36 1
    28   15   16 ar
    29   15   37 1
    30   16   17 1
    31   17   18 2
    32   17   19 am
    33   19   20 1
    34   20   25 ar
    35   20   21 ar
    36   21   22 ar
    37   21   38 1
    38   22   23 ar
    39   22   39 1
    40   23   24 ar
    41   23   26 1
    42   24   25 ar
    43   24   40 1
    44   25   41 1
    45   26   42 1
@<TRIPOS>Similarity
1.0392
@<TRIPOS>ShapeSim
0.6014
@<TRIPOS>PharmSim
0.4378
# END
# Name:		ZINC03902181
# Created and modified by SHAFTS on Mon Jun 23 14:53:19 2014

# 

@<TRIPOS>MOLECULE
ZINC03902181
   42    45     0
SMALL
USER_CHARGE


@<TRIPOS>ATOM
      1 C1          1.0082    5.3205    6.0255 C.ar      1 <1>        -0.1051
      2 C2          1.8319    4.2313    6.2507 C.ar      1 <1>        -0.1013
      3 C3          2.5104    3.6470    5.2021 C.ar      1 <1>        -0.0916
      4 C4          2.3642    4.1574    3.9086 C.ar      1 <1>        -0.0777
      5 C5          1.5346    5.2615    3.6900 C.ar      1 <1>        -0.0944
      6 C6          0.8585    5.8316    4.7480 C.ar      1 <1>        -0.1030
      7 C7          3.0851    3.5394    2.7834 C.2       1 <1>        -0.0547
      8 C8          2.9418    4.0342    1.5380 C.2       1 <1>         0.0021
      9 C9          3.6588    3.4195    0.4190 C.2       1 <1>         0.0596
     10 N1          4.3526    2.3275    0.6426 N.2       1 <1>        -0.3520
     11 C10         5.0353    1.7105   -0.3399 C.ar      1 <1>        -0.0073
     12 C11         5.7729    0.5468   -0.0976 C.ar      1 <1>        -0.0510
     13 C12         6.4529   -0.0515   -1.1202 C.ar      1 <1>        -0.0840
     14 C13         6.4245    0.4783   -2.4041 C.ar      1 <1>        -0.0899
     15 C14         5.7072    1.6233   -2.6747 C.ar      1 <1>        -0.0639
     16 C15         5.0057    2.2509   -1.6468 C.ar      1 <1>         0.0558
     17 C16         4.2236    3.4736   -1.8772 C.2       1 <1>         0.1531
     18 O1          4.1613    3.9847   -2.9803 O.2       1 <1>        -0.4532
     19 N2          3.5711    4.0077   -0.8185 N.am      1 <1>        -0.2358
     20 C17         2.8066    5.1699   -0.9851 C.ar      1 <1>        -0.0119
     21 C18         3.4006    6.4177   -0.8485 C.ar      1 <1>        -0.0528
     22 C19         2.6479    7.5626   -1.0185 C.ar      1 <1>        -0.0529
     23 C20         1.2957    7.4666   -1.3143 C.ar      1 <1>        -0.0318
     24 C21         0.7003    6.2202   -1.4452 C.ar      1 <1>        -0.0533
     25 C22         1.4531    5.0746   -1.2812 C.ar      1 <1>        -0.0533
     26 O2          0.5538    8.5943   -1.4755 O.3       1 <1>        -0.4350
     27 H1          0.4794    5.7739    6.8509 H         1 <1>         0.1194
     28 H2          1.9436    3.8381    7.2504 H         1 <1>         0.1186
     29 H3          3.1526    2.7970    5.3793 H         1 <1>         0.1287
     30 H4          1.4205    5.6644    2.6945 H         1 <1>         0.1227
     31 H5          0.2138    6.6816    4.5802 H         1 <1>         0.1171
     32 H6          3.7288    2.6895    2.9561 H         1 <1>         0.1632
     33 H7          2.2982    4.8842    1.3654 H         1 <1>         0.1484
     34 H8          5.8051    0.1229    0.8952 H         1 <1>         0.1436
     35 H9          7.0204   -0.9499   -0.9278 H         1 <1>         0.1367
     36 H10         6.9701   -0.0115   -3.1971 H         1 <1>         0.1233
     37 H11         5.6884    2.0306   -3.6748 H         1 <1>         0.1455
     38 H12         4.4520    6.4926   -0.6135 H         1 <1>         0.1416
     39 H13         3.1107    8.5330   -0.9167 H         1 <1>         0.1373
     40 H14        -0.3523    6.1463   -1.6752 H         1 <1>         0.1371
     41 H15         0.9894    4.1045   -1.3827 H         1 <1>         0.1413
     42 H16         0.1507    8.9199   -0.6591 H         1 <1>         0.3607
@<TRIPOS>BOND
     1    1    6 ar
     2    1    2 ar
     3    1   27 1
     4    2    3 ar
     5    2   28 1
     6    3    4 ar
     7    3   29 1
     8    4    5 ar
     9    4    7 1
    10    5    6 ar
    11    5   30 1
    12    6   31 1
    13    7    8 2
    14    7   32 1
    15    8    9 1
    16    8   33 1
    17    9   19 1
    18    9   10 2
    19   10   11 1
    20   11   16 ar
    21   11   12 ar
    22   12   13 ar
    23   12   34 1
    24   13   14 ar
    25   13   35 1
    26   14   15 ar
    27   14   36 1
    28   15   16 ar
    29   15   37 1
    30   16   17 1
    31   17   18 2
    32   17   19 am
    33   19   20 1
    34   20   25 ar
    35   20   21 ar
    36   21   22 ar
    37   21   38 1
    38   22   23 ar
    39   22   39 1
    40   23   24 ar
    41   23   26 1
    42   24   25 ar
    43   24   40 1
    44   25   41 1
    45   26   42 1
@<TRIPOS>Similarity
1.0392
@<TRIPOS>ShapeSim
0.6014
@<TRIPOS>PharmSim
0.4378
# END
# Name:		ZINC03902181
# Created and modified by SHAFTS on Mon Jun 23 14:53:19 2014

# 

@<TRIPOS>MOLECULE
ZINC03902181
   42    45     0
SMALL
USER_CHARGE


@<TRIPOS>ATOM
      1 C1          1.0082    5.3205    6.0255 C.ar      1 <1>        -0.1051
      2 C2          1.8319    4.2313    6.2507 C.ar      1 <1>        -0.1013
      3 C3          2.5104    3.6470    5.2021 C.ar      1 <1>        -0.0916
      4 C4          2.3642    4.1574    3.9086 C.ar      1 <1>        -0.0777
      5 C5          1.5346    5.2615    3.6900 C.ar      1 <1>        -0.0944
      6 C6          0.8585    5.8316    4.7480 C.ar      1 <1>        -0.1030
      7 C7          3.0851    3.5394    2.7834 C.2       1 <1>        -0.0547
      8 C8          2.9418    4.0342    1.5380 C.2       1 <1>         0.0021
      9 C9          3.6588    3.4195    0.4190 C.2       1 <1>         0.0596
     10 N1          4.3526    2.3275    0.6426 N.2       1 <1>        -0.3520
     11 C10         5.0353    1.7105   -0.3399 C.ar      1 <1>        -0.0073
     12 C11         5.7729    0.5468   -0.0976 C.ar      1 <1>        -0.0510
     13 C12         6.4529   -0.0515   -1.1202 C.ar      1 <1>        -0.0840
     14 C13         6.4245    0.4783   -2.4041 C.ar      1 <1>        -0.0899
     15 C14         5.7072    1.6233   -2.6747 C.ar      1 <1>        -0.0639
     16 C15         5.0057    2.2509   -1.6468 C.ar      1 <1>         0.0558
     17 C16         4.2236    3.4736   -1.8772 C.2       1 <1>         0.1531
     18 O1          4.1613    3.9847   -2.9803 O.2       1 <1>        -0.4532
     19 N2          3.5711    4.0077   -0.8185 N.am      1 <1>        -0.2358
     20 C17         2.8066    5.1699   -0.9851 C.ar      1 <1>        -0.0119
     21 C18         3.4006    6.4177   -0.8485 C.ar      1 <1>        -0.0528
     22 C19         2.6479    7.5626   -1.0185 C.ar      1 <1>        -0.0529
     23 C20         1.2957    7.4666   -1.3143 C.ar      1 <1>        -0.0318
     24 C21         0.7003    6.2202   -1.4452 C.ar      1 <1>        -0.0533
     25 C22         1.4531    5.0746   -1.2812 C.ar      1 <1>        -0.0533
     26 O2          0.5538    8.5943   -1.4755 O.3       1 <1>        -0.4350
     27 H1          0.4794    5.7739    6.8509 H         1 <1>         0.1194
     28 H2          1.9436    3.8381    7.2504 H         1 <1>         0.1186
     29 H3          3.1526    2.7970    5.3793 H         1 <1>         0.1287
     30 H4          1.4205    5.6644    2.6945 H         1 <1>         0.1227
     31 H5          0.2138    6.6816    4.5802 H         1 <1>         0.1171
     32 H6          3.7288    2.6895    2.9561 H         1 <1>         0.1632
     33 H7          2.2982    4.8842    1.3654 H         1 <1>         0.1484
     34 H8          5.8051    0.1229    0.8952 H         1 <1>         0.1436
     35 H9          7.0204   -0.9499   -0.9278 H         1 <1>         0.1367
     36 H10         6.9701   -0.0115   -3.1971 H         1 <1>         0.1233
     37 H11         5.6884    2.0306   -3.6748 H         1 <1>         0.1455
     38 H12         4.4520    6.4926   -0.6135 H         1 <1>         0.1416
     39 H13         3.1107    8.5330   -0.9167 H         1 <1>         0.1373
     40 H14        -0.3523    6.1463   -1.6752 H         1 <1>         0.1371
     41 H15         0.9894    4.1045   -1.3827 H         1 <1>         0.1413
     42 H16         0.1507    8.9199   -0.6591 H         1 <1>         0.3607
@<TRIPOS>BOND
     1    1    6 ar
     2    1    2 ar
     3    1   27 1
     4    2    3 ar
     5    2   28 1
     6    3    4 ar
     7    3   29 1
     8    4    5 ar
     9    4    7 1
    10    5    6 ar
    11    5   30 1
    12    6   31 1
    13    7    8 2
    14    7   32 1
    15    8    9 1
    16    8   33 1
    17    9   19 1
    18    9   10 2
    19   10   11 1
    20   11   16 ar
    21   11   12 ar
    22   12   13 ar
    23   12   34 1
    24   13   14 ar
    25   13   35 1
    26   14   15 ar
    27   14   36 1
    28   15   16 ar
    29   15   37 1
    30   16   17 1
    31   17   18 2
    32   17   19 am
    33   19   20 1
    34   20   25 ar
    35   20   21 ar
    36   21   22 ar
    37   21   38 1
    38   22   23 ar
    39   22   39 1
    40   23   24 ar
    41   23   26 1
    42   24   25 ar
    43   24   40 1
    44   25   41 1
    45   26   42 1
@<TRIPOS>Similarity
1.0392
@<TRIPOS>ShapeSim
0.6014
@<TRIPOS>PharmSim
0.4378
# END
# Name:		ZINC03902181
# Created and modified by SHAFTS on Mon Jun 23 14:53:19 2014

# 

@<TRIPOS>MOLECULE
ZINC03902181
   42    45     0
SMALL
USER_CHARGE


@<TRIPOS>ATOM
      1 C1          1.0082    5.3205    6.0255 C.ar      1 <1>        -0.1051
      2 C2          1.8319    4.2313    6.2507 C.ar      1 <1>        -0.1013
      3 C3          2.5104    3.6470    5.2021 C.ar      1 <1>        -0.0916
      4 C4          2.3642    4.1574    3.9086 C.ar      1 <1>        -0.0777
      5 C5          1.5346    5.2615    3.6900 C.ar      1 <1>        -0.0944
      6 C6          0.8585    5.8316    4.7480 C.ar      1 <1>        -0.1030
      7 C7          3.0851    3.5394    2.7834 C.2       1 <1>        -0.0547
      8 C8          2.9418    4.0342    1.5380 C.2       1 <1>         0.0021
      9 C9          3.6588    3.4195    0.4190 C.2       1 <1>         0.0596
     10 N1          4.3526    2.3275    0.6426 N.2       1 <1>        -0.3520
     11 C10         5.0353    1.7105   -0.3399 C.ar      1 <1>        -0.0073
     12 C11         5.7729    0.5468   -0.0976 C.ar      1 <1>        -0.0510
     13 C12         6.4529   -0.0515   -1.1202 C.ar      1 <1>        -0.0840
     14 C13         6.4245    0.4783   -2.4041 C.ar      1 <1>        -0.0899
     15 C14         5.7072    1.6233   -2.6747 C.ar      1 <1>        -0.0639
     16 C15         5.0057    2.2509   -1.6468 C.ar      1 <1>         0.0558
     17 C16         4.2236    3.4736   -1.8772 C.2       1 <1>         0.1531
     18 O1          4.1613    3.9847   -2.9803 O.2       1 <1>        -0.4532
     19 N2          3.5711    4.0077   -0.8185 N.am      1 <1>        -0.2358
     20 C17         2.8066    5.1699   -0.9851 C.ar      1 <1>        -0.0119
     21 C18         3.4006    6.4177   -0.8485 C.ar      1 <1>        -0.0528
     22 C19         2.6479    7.5626   -1.0185 C.ar      1 <1>        -0.0529
     23 C20         1.2957    7.4666   -1.3143 C.ar      1 <1>        -0.0318
     24 C21         0.7003    6.2202   -1.4452 C.ar      1 <1>        -0.0533
     25 C22         1.4531    5.0746   -1.2812 C.ar      1 <1>        -0.0533
     26 O2          0.5538    8.5943   -1.4755 O.3       1 <1>        -0.4350
     27 H1          0.4794    5.7739    6.8509 H         1 <1>         0.1194
     28 H2          1.9436    3.8381    7.2504 H         1 <1>         0.1186
     29 H3          3.1526    2.7970    5.3793 H         1 <1>         0.1287
     30 H4          1.4205    5.6644    2.6945 H         1 <1>         0.1227
     31 H5          0.2138    6.6816    4.5802 H         1 <1>         0.1171
     32 H6          3.7288    2.6895    2.9561 H         1 <1>         0.1632
     33 H7          2.2982    4.8842    1.3654 H         1 <1>         0.1484
     34 H8          5.8051    0.1229    0.8952 H         1 <1>         0.1436
     35 H9          7.0204   -0.9499   -0.9278 H         1 <1>         0.1367
     36 H10         6.9701   -0.0115   -3.1971 H         1 <1>         0.1233
     37 H11         5.6884    2.0306   -3.6748 H         1 <1>         0.1455
     38 H12         4.4520    6.4926   -0.6135 H         1 <1>         0.1416
     39 H13         3.1107    8.5330   -0.9167 H         1 <1>         0.1373
     40 H14        -0.3523    6.1463   -1.6752 H         1 <1>         0.1371
     41 H15         0.9894    4.1045   -1.3827 H         1 <1>         0.1413
     42 H16         0.1507    8.9199   -0.6591 H         1 <1>         0.3607
@<TRIPOS>BOND
     1    1    6 ar
     2    1    2 ar
     3    1   27 1
     4    2    3 ar
     5    2   28 1
     6    3    4 ar
     7    3   29 1
     8    4    5 ar
     9    4    7 1
    10    5    6 ar
    11    5   30 1
    12    6   31 1
    13    7    8 2
    14    7   32 1
    15    8    9 1
    16    8   33 1
    17    9   19 1
    18    9   10 2
    19   10   11 1
    20   11   16 ar
    21   11   12 ar
    22   12   13 ar
    23   12   34 1
    24   13   14 ar
    25   13   35 1
    26   14   15 ar
    27   14   36 1
    28   15   16 ar
    29   15   37 1
    30   16   17 1
    31   17   18 2
    32   17   19 am
    33   19   20 1
    34   20   25 ar
    35   20   21 ar
    36   21   22 ar
    37   21   38 1
    38   22   23 ar
    39   22   39 1
    40   23   24 ar
    41   23   26 1
    42   24   25 ar
    43   24   40 1
    44   25   41 1
    45   26   42 1
@<TRIPOS>Similarity
1.0392
@<TRIPOS>ShapeSim
0.6014
@<TRIPOS>PharmSim
0.4378
# END
# Name:		ZINC03902181
# Created and modified by SHAFTS on Mon Jun 23 14:53:19 2014

# 

@<TRIPOS>MOLECULE
ZINC03902181
   42    45     0
SMALL
USER_CHARGE


@<TRIPOS>ATOM
      1 C1          1.0082    5.3205    6.0255 C.ar      1 <1>        -0.1051
      2 C2          1.8319    4.2313    6.2507 C.ar      1 <1>        -0.1013
      3 C3          2.5104    3.6470    5.2021 C.ar      1 <1>        -0.0916
      4 C4          2.3642    4.1574    3.9086 C.ar      1 <1>        -0.0777
      5 C5          1.5346    5.2615    3.6900 C.ar      1 <1>        -0.0944
      6 C6          0.8585    5.8316    4.7480 C.ar      1 <1>        -0.1030
      7 C7          3.0851    3.5394    2.7834 C.2       1 <1>        -0.0547
      8 C8          2.9418    4.0342    1.5380 C.2       1 <1>         0.0021
      9 C9          3.6588    3.4195    0.4190 C.2       1 <1>         0.0596
     10 N1          4.3526    2.3275    0.6426 N.2       1 <1>        -0.3520
     11 C10         5.0353    1.7105   -0.3399 C.ar      1 <1>        -0.0073
     12 C11         5.7729    0.5468   -0.0976 C.ar      1 <1>        -0.0510
     13 C12         6.4529   -0.0515   -1.1202 C.ar      1 <1>        -0.0840
     14 C13         6.4245    0.4783   -2.4041 C.ar      1 <1>        -0.0899
     15 C14         5.7072    1.6233   -2.6747 C.ar      1 <1>        -0.0639
     16 C15         5.0057    2.2509   -1.6468 C.ar      1 <1>         0.0558
     17 C16         4.2236    3.4736   -1.8772 C.2       1 <1>         0.1531
     18 O1          4.1613    3.9847   -2.9803 O.2       1 <1>        -0.4532
     19 N2          3.5711    4.0077   -0.8185 N.am      1 <1>        -0.2358
     20 C17         2.8066    5.1699   -0.9851 C.ar      1 <1>        -0.0119
     21 C18         3.4006    6.4177   -0.8485 C.ar      1 <1>        -0.0528
     22 C19         2.6479    7.5626   -1.0185 C.ar      1 <1>        -0.0529
     23 C20         1.2957    7.4666   -1.3143 C.ar      1 <1>        -0.0318
     24 C21         0.7003    6.2202   -1.4452 C.ar      1 <1>        -0.0533
     25 C22         1.4531    5.0746   -1.2812 C.ar      1 <1>        -0.0533
     26 O2          0.5538    8.5943   -1.4755 O.3       1 <1>        -0.4350
     27 H1          0.4794    5.7739    6.8509 H         1 <1>         0.1194
     28 H2          1.9436    3.8381    7.2504 H         1 <1>         0.1186
     29 H3          3.1526    2.7970    5.3793 H         1 <1>         0.1287
     30 H4          1.4205    5.6644    2.6945 H         1 <1>         0.1227
     31 H5          0.2138    6.6816    4.5802 H         1 <1>         0.1171
     32 H6          3.7288    2.6895    2.9561 H         1 <1>         0.1632
     33 H7          2.2982    4.8842    1.3654 H         1 <1>         0.1484
     34 H8          5.8051    0.1229    0.8952 H         1 <1>         0.1436
     35 H9          7.0204   -0.9499   -0.9278 H         1 <1>         0.1367
     36 H10         6.9701   -0.0115   -3.1971 H         1 <1>         0.1233
     37 H11         5.6884    2.0306   -3.6748 H         1 <1>         0.1455
     38 H12         4.4520    6.4926   -0.6135 H         1 <1>         0.1416
     39 H13         3.1107    8.5330   -0.9167 H         1 <1>         0.1373
     40 H14        -0.3523    6.1463   -1.6752 H         1 <1>         0.1371
     41 H15         0.9894    4.1045   -1.3827 H         1 <1>         0.1413
     42 H16         0.1507    8.9199   -0.6591 H         1 <1>         0.3607
@<TRIPOS>BOND
     1    1    6 ar
     2    1    2 ar
     3    1   27 1
     4    2    3 ar
     5    2   28 1
     6    3    4 ar
     7    3   29 1
     8    4    5 ar
     9    4    7 1
    10    5    6 ar
    11    5   30 1
    12    6   31 1
    13    7    8 2
    14    7   32 1
    15    8    9 1
    16    8   33 1
    17    9   19 1
    18    9   10 2
    19   10   11 1
    20   11   16 ar
    21   11   12 ar
    22   12   13 ar
    23   12   34 1
    24   13   14 ar
    25   13   35 1
    26   14   15 ar
    27   14   36 1
    28   15   16 ar
    29   15   37 1
    30   16   17 1
    31   17   18 2
    32   17   19 am
    33   19   20 1
    34   20   25 ar
    35   20   21 ar
    36   21   22 ar
    37   21   38 1
    38   22   23 ar
    39   22   39 1
    40   23   24 ar
    41   23   26 1
    42   24   25 ar
    43   24   40 1
    44   25   41 1
    45   26   42 1
@<TRIPOS>Similarity
1.0392
@<TRIPOS>ShapeSim
0.6014
@<TRIPOS>PharmSim
0.4378
# END
# Name:		ZINC03902181
# Created and modified by SHAFTS on Mon Jun 23 14:53:19 2014

# 

@<TRIPOS>MOLECULE
ZINC03902181
   42    45     0
SMALL
USER_CHARGE


@<TRIPOS>ATOM
      1 C1          1.0082    5.3205    6.0255 C.ar      1 <1>        -0.1051
      2 C2          1.8319    4.2313    6.2507 C.ar      1 <1>        -0.1013
      3 C3          2.5104    3.6470    5.2021 C.ar      1 <1>        -0.0916
      4 C4          2.3642    4.1574    3.9086 C.ar      1 <1>        -0.0777
      5 C5          1.5346    5.2615    3.6900 C.ar      1 <1>        -0.0944
      6 C6          0.8585    5.8316    4.7480 C.ar      1 <1>        -0.1030
      7 C7          3.0851    3.5394    2.7834 C.2       1 <1>        -0.0547
      8 C8          2.9418    4.0342    1.5380 C.2       1 <1>         0.0021
      9 C9          3.6588    3.4195    0.4190 C.2       1 <1>         0.0596
     10 N1          4.3526    2.3275    0.6426 N.2       1 <1>        -0.3520
     11 C10         5.0353    1.7105   -0.3399 C.ar      1 <1>        -0.0073
     12 C11         5.7729    0.5468   -0.0976 C.ar      1 <1>        -0.0510
     13 C12         6.4529   -0.0515   -1.1202 C.ar      1 <1>        -0.0840
     14 C13         6.4245    0.4783   -2.4041 C.ar      1 <1>        -0.0899
     15 C14         5.7072    1.6233   -2.6747 C.ar      1 <1>        -0.0639
     16 C15         5.0057    2.2509   -1.6468 C.ar      1 <1>         0.0558
     17 C16         4.2236    3.4736   -1.8772 C.2       1 <1>         0.1531
     18 O1          4.1613    3.9847   -2.9803 O.2       1 <1>        -0.4532
     19 N2          3.5711    4.0077   -0.8185 N.am      1 <1>        -0.2358
     20 C17         2.8066    5.1699   -0.9851 C.ar      1 <1>        -0.0119
     21 C18         3.4006    6.4177   -0.8485 C.ar      1 <1>        -0.0528
     22 C19         2.6479    7.5626   -1.0185 C.ar      1 <1>        -0.0529
     23 C20         1.2957    7.4666   -1.3143 C.ar      1 <1>        -0.0318
     24 C21         0.7003    6.2202   -1.4452 C.ar      1 <1>        -0.0533
     25 C22         1.4531    5.0746   -1.2812 C.ar      1 <1>        -0.0533
     26 O2          0.5538    8.5943   -1.4755 O.3       1 <1>        -0.4350
     27 H1          0.4794    5.7739    6.8509 H         1 <1>         0.1194
     28 H2          1.9436    3.8381    7.2504 H         1 <1>         0.1186
     29 H3          3.1526    2.7970    5.3793 H         1 <1>         0.1287
     30 H4          1.4205    5.6644    2.6945 H         1 <1>         0.1227
     31 H5          0.2138    6.6816    4.5802 H         1 <1>         0.1171
     32 H6          3.7288    2.6895    2.9561 H         1 <1>         0.1632
     33 H7          2.2982    4.8842    1.3654 H         1 <1>         0.1484
     34 H8          5.8051    0.1229    0.8952 H         1 <1>         0.1436
     35 H9          7.0204   -0.9499   -0.9278 H         1 <1>         0.1367
     36 H10         6.9701   -0.0115   -3.1971 H         1 <1>         0.1233
     37 H11         5.6884    2.0306   -3.6748 H         1 <1>         0.1455
     38 H12         4.4520    6.4926   -0.6135 H         1 <1>         0.1416
     39 H13         3.1107    8.5330   -0.9167 H         1 <1>         0.1373
     40 H14        -0.3523    6.1463   -1.6752 H         1 <1>         0.1371
     41 H15         0.9894    4.1045   -1.3827 H         1 <1>         0.1413
     42 H16         0.1507    8.9199   -0.6591 H         1 <1>         0.3607
@<TRIPOS>BOND
     1    1    6 ar
     2    1    2 ar
     3    1   27 1
     4    2    3 ar
     5    2   28 1
     6    3    4 ar
     7    3   29 1
     8    4    5 ar
     9    4    7 1
    10    5    6 ar
    11    5   30 1
    12    6   31 1
    13    7    8 2
    14    7   32 1
    15    8    9 1
    16    8   33 1
    17    9   19 1
    18    9   10 2
    19   10   11 1
    20   11   16 ar
    21   11   12 ar
    22   12   13 ar
    23   12   34 1
    24   13   14 ar
    25   13   35 1
    26   14   15 ar
    27   14   36 1
    28   15   16 ar
    29   15   37 1
    30   16   17 1
    31   17   18 2
    32   17   19 am
    33   19   20 1
    34   20   25 ar
    35   20   21 ar
    36   21   22 ar
    37   21   38 1
    38   22   23 ar
    39   22   39 1
    40   23   24 ar
    41   23   26 1
    42   24   25 ar
    43   24   40 1
    44   25   41 1
    45   26   42 1
@<TRIPOS>Similarity
1.0392
@<TRIPOS>ShapeSim
0.6014
@<TRIPOS>PharmSim
0.4378
# END
# Name:		ZINC03902181
# Created and modified by SHAFTS on Mon Jun 23 14:53:19 2014

# 

@<TRIPOS>MOLECULE
ZINC03902181
   42    45     0
SMALL
USER_CHARGE


@<TRIPOS>ATOM
      1 C1          1.0082    5.3205    6.0255 C.ar      1 <1>        -0.1051
      2 C2          1.8319    4.2313    6.2507 C.ar      1 <1>        -0.1013
      3 C3          2.5104    3.6470    5.2021 C.ar      1 <1>        -0.0916
      4 C4          2.3642    4.1574    3.9086 C.ar      1 <1>        -0.0777
      5 C5          1.5346    5.2615    3.6900 C.ar      1 <1>        -0.0944
      6 C6          0.8585    5.8316    4.7480 C.ar      1 <1>        -0.1030
      7 C7          3.0851    3.5394    2.7834 C.2       1 <1>        -0.0547
      8 C8          2.9418    4.0342    1.5380 C.2       1 <1>         0.0021
      9 C9          3.6588    3.4195    0.4190 C.2       1 <1>         0.0596
     10 N1          4.3526    2.3275    0.6426 N.2       1 <1>        -0.3520
     11 C10         5.0353    1.7105   -0.3399 C.ar      1 <1>        -0.0073
     12 C11         5.7729    0.5468   -0.0976 C.ar      1 <1>        -0.0510
     13 C12         6.4529   -0.0515   -1.1202 C.ar      1 <1>        -0.0840
     14 C13         6.4245    0.4783   -2.4041 C.ar      1 <1>        -0.0899
     15 C14         5.7072    1.6233   -2.6747 C.ar      1 <1>        -0.0639
     16 C15         5.0057    2.2509   -1.6468 C.ar      1 <1>         0.0558
     17 C16         4.2236    3.4736   -1.8772 C.2       1 <1>         0.1531
     18 O1          4.1613    3.9847   -2.9803 O.2       1 <1>        -0.4532
     19 N2          3.5711    4.0077   -0.8185 N.am      1 <1>        -0.2358
     20 C17         2.8066    5.1699   -0.9851 C.ar      1 <1>        -0.0119
     21 C18         3.4006    6.4177   -0.8485 C.ar      1 <1>        -0.0528
     22 C19         2.6479    7.5626   -1.0185 C.ar      1 <1>        -0.0529
     23 C20         1.2957    7.4666   -1.3143 C.ar      1 <1>        -0.0318
     24 C21         0.7003    6.2202   -1.4452 C.ar      1 <1>        -0.0533
     25 C22         1.4531    5.0746   -1.2812 C.ar      1 <1>        -0.0533
     26 O2          0.5538    8.5943   -1.4755 O.3       1 <1>        -0.4350
     27 H1          0.4794    5.7739    6.8509 H         1 <1>         0.1194
     28 H2          1.9436    3.8381    7.2504 H         1 <1>         0.1186
     29 H3          3.1526    2.7970    5.3793 H         1 <1>         0.1287
     30 H4          1.4205    5.6644    2.6945 H         1 <1>         0.1227
     31 H5          0.2138    6.6816    4.5802 H         1 <1>         0.1171
     32 H6          3.7288    2.6895    2.9561 H         1 <1>         0.1632
     33 H7          2.2982    4.8842    1.3654 H         1 <1>         0.1484
     34 H8          5.8051    0.1229    0.8952 H         1 <1>         0.1436
     35 H9          7.0204   -0.9499   -0.9278 H         1 <1>         0.1367
     36 H10         6.9701   -0.0115   -3.1971 H         1 <1>         0.1233
     37 H11         5.6884    2.0306   -3.6748 H         1 <1>         0.1455
     38 H12         4.4520    6.4926   -0.6135 H         1 <1>         0.1416
     39 H13         3.1107    8.5330   -0.9167 H         1 <1>         0.1373
     40 H14        -0.3523    6.1463   -1.6752 H         1 <1>         0.1371
     41 H15         0.9894    4.1045   -1.3827 H         1 <1>         0.1413
     42 H16         0.1507    8.9199   -0.6591 H         1 <1>         0.3607
@<TRIPOS>BOND
     1    1    6 ar
     2    1    2 ar
     3    1   27 1
     4    2    3 ar
     5    2   28 1
     6    3    4 ar
     7    3   29 1
     8    4    5 ar
     9    4    7 1
    10    5    6 ar
    11    5   30 1
    12    6   31 1
    13    7    8 2
    14    7   32 1
    15    8    9 1
    16    8   33 1
    17    9   19 1
    18    9   10 2
    19   10   11 1
    20   11   16 ar
    21   11   12 ar
    22   12   13 ar
    23   12   34 1
    24   13   14 ar
    25   13   35 1
    26   14   15 ar
    27   14   36 1
    28   15   16 ar
    29   15   37 1
    30   16   17 1
    31   17   18 2
    32   17   19 am
    33   19   20 1
    34   20   25 ar
    35   20   21 ar
    36   21   22 ar
    37   21   38 1
    38   22   23 ar
    39   22   39 1
    40   23   24 ar
    41   23   26 1
    42   24   25 ar
    43   24   40 1
    44   25   41 1
    45   26   42 1
@<TRIPOS>Similarity
1.0392
@<TRIPOS>ShapeSim
0.6014
@<TRIPOS>PharmSim
0.4378
# END
# Name:		ZINC03902181
# Created and modified by SHAFTS on Mon Jun 23 14:53:19 2014

# 

@<TRIPOS>MOLECULE
ZINC03902181
   42    45     0
SMALL
USER_CHARGE


@<TRIPOS>ATOM
      1 C1          1.0082    5.3205    6.0255 C.ar      1 <1>        -0.1051
      2 C2          1.8319    4.2313    6.2507 C.ar      1 <1>        -0.1013
      3 C3          2.5104    3.6470    5.2021 C.ar      1 <1>        -0.0916
      4 C4          2.3642    4.1574    3.9086 C.ar      1 <1>        -0.0777
      5 C5          1.5346    5.2615    3.6900 C.ar      1 <1>        -0.0944
      6 C6          0.8585    5.8316    4.7480 C.ar      1 <1>        -0.1030
      7 C7          3.0851    3.5394    2.7834 C.2       1 <1>        -0.0547
      8 C8          2.9418    4.0342    1.5380 C.2       1 <1>         0.0021
      9 C9          3.6588    3.4195    0.4190 C.2       1 <1>         0.0596
     10 N1          4.3526    2.3275    0.6426 N.2       1 <1>        -0.3520
     11 C10         5.0353    1.7105   -0.3399 C.ar      1 <1>        -0.0073
     12 C11         5.7729    0.5468   -0.0976 C.ar      1 <1>        -0.0510
     13 C12         6.4529   -0.0515   -1.1202 C.ar      1 <1>        -0.0840
     14 C13         6.4245    0.4783   -2.4041 C.ar      1 <1>        -0.0899
     15 C14         5.7072    1.6233   -2.6747 C.ar      1 <1>        -0.0639
     16 C15         5.0057    2.2509   -1.6468 C.ar      1 <1>         0.0558
     17 C16         4.2236    3.4736   -1.8772 C.2       1 <1>         0.1531
     18 O1          4.1613    3.9847   -2.9803 O.2       1 <1>        -0.4532
     19 N2          3.5711    4.0077   -0.8185 N.am      1 <1>        -0.2358
     20 C17         2.8066    5.1699   -0.9851 C.ar      1 <1>        -0.0119
     21 C18         3.4006    6.4177   -0.8485 C.ar      1 <1>        -0.0528
     22 C19         2.6479    7.5626   -1.0185 C.ar      1 <1>        -0.0529
     23 C20         1.2957    7.4666   -1.3143 C.ar      1 <1>        -0.0318
     24 C21         0.7003    6.2202   -1.4452 C.ar      1 <1>        -0.0533
     25 C22         1.4531    5.0746   -1.2812 C.ar      1 <1>        -0.0533
     26 O2          0.5538    8.5943   -1.4755 O.3       1 <1>        -0.4350
     27 H1          0.4794    5.7739    6.8509 H         1 <1>         0.1194
     28 H2          1.9436    3.8381    7.2504 H         1 <1>         0.1186
     29 H3          3.1526    2.7970    5.3793 H         1 <1>         0.1287
     30 H4          1.4205    5.6644    2.6945 H         1 <1>         0.1227
     31 H5          0.2138    6.6816    4.5802 H         1 <1>         0.1171
     32 H6          3.7288    2.6895    2.9561 H         1 <1>         0.1632
     33 H7          2.2982    4.8842    1.3654 H         1 <1>         0.1484
     34 H8          5.8051    0.1229    0.8952 H         1 <1>         0.1436
     35 H9          7.0204   -0.9499   -0.9278 H         1 <1>         0.1367
     36 H10         6.9701   -0.0115   -3.1971 H         1 <1>         0.1233
     37 H11         5.6884    2.0306   -3.6748 H         1 <1>         0.1455
     38 H12         4.4520    6.4926   -0.6135 H         1 <1>         0.1416
     39 H13         3.1107    8.5330   -0.9167 H         1 <1>         0.1373
     40 H14        -0.3523    6.1463   -1.6752 H         1 <1>         0.1371
     41 H15         0.9894    4.1045   -1.3827 H         1 <1>         0.1413
     42 H16         0.1507    8.9199   -0.6591 H         1 <1>         0.3607
@<TRIPOS>BOND
     1    1    6 ar
     2    1    2 ar
     3    1   27 1
     4    2    3 ar
     5    2   28 1
     6    3    4 ar
     7    3   29 1
     8    4    5 ar
     9    4    7 1
    10    5    6 ar
    11    5   30 1
    12    6   31 1
    13    7    8 2
    14    7   32 1
    15    8    9 1
    16    8   33 1
    17    9   19 1
    18    9   10 2
    19   10   11 1
    20   11   16 ar
    21   11   12 ar
    22   12   13 ar
    23   12   34 1
    24   13   14 ar
    25   13   35 1
    26   14   15 ar
    27   14   36 1
    28   15   16 ar
    29   15   37 1
    30   16   17 1
    31   17   18 2
    32   17   19 am
    33   19   20 1
    34   20   25 ar
    35   20   21 ar
    36   21   22 ar
    37   21   38 1
    38   22   23 ar
    39   22   39 1
    40   23   24 ar
    41   23   26 1
    42   24   25 ar
    43   24   40 1
    44   25   41 1
    45   26   42 1
@<TRIPOS>Similarity
1.0392
@<TRIPOS>ShapeSim
0.6014
@<TRIPOS>PharmSim
0.4378
# END
# Name:		ZINC03902181
# Created and modified by SHAFTS on Mon Jun 23 14:53:19 2014

# 

@<TRIPOS>MOLECULE
ZINC03902181
   42    45     0
SMALL
USER_CHARGE


@<TRIPOS>ATOM
      1 C1          1.0082    5.3205    6.0255 C.ar      1 <1>        -0.1051
      2 C2          1.8319    4.2313    6.2507 C.ar      1 <1>        -0.1013
      3 C3          2.5104    3.6470    5.2021 C.ar      1 <1>        -0.0916
      4 C4          2.3642    4.1574    3.9086 C.ar      1 <1>        -0.0777
      5 C5          1.5346    5.2615    3.6900 C.ar      1 <1>        -0.0944
      6 C6          0.8585    5.8316    4.7480 C.ar      1 <1>        -0.1030
      7 C7          3.0851    3.5394    2.7834 C.2       1 <1>        -0.0547
      8 C8          2.9418    4.0342    1.5380 C.2       1 <1>         0.0021
      9 C9          3.6588    3.4195    0.4190 C.2       1 <1>         0.0596
     10 N1          4.3526    2.3275    0.6426 N.2       1 <1>        -0.3520
     11 C10         5.0353    1.7105   -0.3399 C.ar      1 <1>        -0.0073
     12 C11         5.7729    0.5468   -0.0976 C.ar      1 <1>        -0.0510
     13 C12         6.4529   -0.0515   -1.1202 C.ar      1 <1>        -0.0840
     14 C13         6.4245    0.4783   -2.4041 C.ar      1 <1>        -0.0899
     15 C14         5.7072    1.6233   -2.6747 C.ar      1 <1>        -0.0639
     16 C15         5.0057    2.2509   -1.6468 C.ar      1 <1>         0.0558
     17 C16         4.2236    3.4736   -1.8772 C.2       1 <1>         0.1531
     18 O1          4.1613    3.9847   -2.9803 O.2       1 <1>        -0.4532
     19 N2          3.5711    4.0077   -0.8185 N.am      1 <1>        -0.2358
     20 C17         2.8066    5.1699   -0.9851 C.ar      1 <1>        -0.0119
     21 C18         3.4006    6.4177   -0.8485 C.ar      1 <1>        -0.0528
     22 C19         2.6479    7.5626   -1.0185 C.ar      1 <1>        -0.0529
     23 C20         1.2957    7.4666   -1.3143 C.ar      1 <1>        -0.0318
     24 C21         0.7003    6.2202   -1.4452 C.ar      1 <1>        -0.0533
     25 C22         1.4531    5.0746   -1.2812 C.ar      1 <1>        -0.0533
     26 O2          0.5538    8.5943   -1.4755 O.3       1 <1>        -0.4350
     27 H1          0.4794    5.7739    6.8509 H         1 <1>         0.1194
     28 H2          1.9436    3.8381    7.2504 H         1 <1>         0.1186
     29 H3          3.1526    2.7970    5.3793 H         1 <1>         0.1287
     30 H4          1.4205    5.6644    2.6945 H         1 <1>         0.1227
     31 H5          0.2138    6.6816    4.5802 H         1 <1>         0.1171
     32 H6          3.7288    2.6895    2.9561 H         1 <1>         0.1632
     33 H7          2.2982    4.8842    1.3654 H         1 <1>         0.1484
     34 H8          5.8051    0.1229    0.8952 H         1 <1>         0.1436
     35 H9          7.0204   -0.9499   -0.9278 H         1 <1>         0.1367
     36 H10         6.9701   -0.0115   -3.1971 H         1 <1>         0.1233
     37 H11         5.6884    2.0306   -3.6748 H         1 <1>         0.1455
     38 H12         4.4520    6.4926   -0.6135 H         1 <1>         0.1416
     39 H13         3.1107    8.5330   -0.9167 H         1 <1>         0.1373
     40 H14        -0.3523    6.1463   -1.6752 H         1 <1>         0.1371
     41 H15         0.9894    4.1045   -1.3827 H         1 <1>         0.1413
     42 H16         0.1507    8.9199   -0.6591 H         1 <1>         0.3607
@<TRIPOS>BOND
     1    1    6 ar
     2    1    2 ar
     3    1   27 1
     4    2    3 ar
     5    2   28 1
     6    3    4 ar
     7    3   29 1
     8    4    5 ar
     9    4    7 1
    10    5    6 ar
    11    5   30 1
    12    6   31 1
    13    7    8 2
    14    7   32 1
    15    8    9 1
    16    8   33 1
    17    9   19 1
    18    9   10 2
    19   10   11 1
    20   11   16 ar
    21   11   12 ar
    22   12   13 ar
    23   12   34 1
    24   13   14 ar
    25   13   35 1
    26   14   15 ar
    27   14   36 1
    28   15   16 ar
    29   15   37 1
    30   16   17 1
    31   17   18 2
    32   17   19 am
    33   19   20 1
    34   20   25 ar
    35   20   21 ar
    36   21   22 ar
    37   21   38 1
    38   22   23 ar
    39   22   39 1
    40   23   24 ar
    41   23   26 1
    42   24   25 ar
    43   24   40 1
    44   25   41 1
    45   26   42 1
@<TRIPOS>Similarity
1.0392
@<TRIPOS>ShapeSim
0.6014
@<TRIPOS>PharmSim
0.4378
# END
# Name:		ZINC03902181
# Created and modified by SHAFTS on Mon Jun 23 14:53:19 2014

# 

@<TRIPOS>MOLECULE
ZINC03902181
   42    45     0
SMALL
USER_CHARGE


@<TRIPOS>ATOM
      1 C1          1.0082    5.3205    6.0255 C.ar      1 <1>        -0.1051
      2 C2          1.8319    4.2313    6.2507 C.ar      1 <1>        -0.1013
      3 C3          2.5104    3.6470    5.2021 C.ar      1 <1>        -0.0916
      4 C4          2.3642    4.1574    3.9086 C.ar      1 <1>        -0.0777
      5 C5          1.5346    5.2615    3.6900 C.ar      1 <1>        -0.0944
      6 C6          0.8585    5.8316    4.7480 C.ar      1 <1>        -0.1030
      7 C7          3.0851    3.5394    2.7834 C.2       1 <1>        -0.0547
      8 C8          2.9418    4.0342    1.5380 C.2       1 <1>         0.0021
      9 C9          3.6588    3.4195    0.4190 C.2       1 <1>         0.0596
     10 N1          4.3526    2.3275    0.6426 N.2       1 <1>        -0.3520
     11 C10         5.0353    1.7105   -0.3399 C.ar      1 <1>        -0.0073
     12 C11         5.7729    0.5468   -0.0976 C.ar      1 <1>        -0.0510
     13 C12         6.4529   -0.0515   -1.1202 C.ar      1 <1>        -0.0840
     14 C13         6.4245    0.4783   -2.4041 C.ar      1 <1>        -0.0899
     15 C14         5.7072    1.6233   -2.6747 C.ar      1 <1>        -0.0639
     16 C15         5.0057    2.2509   -1.6468 C.ar      1 <1>         0.0558
     17 C16         4.2236    3.4736   -1.8772 C.2       1 <1>         0.1531
     18 O1          4.1613    3.9847   -2.9803 O.2       1 <1>        -0.4532
     19 N2          3.5711    4.0077   -0.8185 N.am      1 <1>        -0.2358
     20 C17         2.8066    5.1699   -0.9851 C.ar      1 <1>        -0.0119
     21 C18         3.4006    6.4177   -0.8485 C.ar      1 <1>        -0.0528
     22 C19         2.6479    7.5626   -1.0185 C.ar      1 <1>        -0.0529
     23 C20         1.2957    7.4666   -1.3143 C.ar      1 <1>        -0.0318
     24 C21         0.7003    6.2202   -1.4452 C.ar      1 <1>        -0.0533
     25 C22         1.4531    5.0746   -1.2812 C.ar      1 <1>        -0.0533
     26 O2          0.5538    8.5943   -1.4755 O.3       1 <1>        -0.4350
     27 H1          0.4794    5.7739    6.8509 H         1 <1>         0.1194
     28 H2          1.9436    3.8381    7.2504 H         1 <1>         0.1186
     29 H3          3.1526    2.7970    5.3793 H         1 <1>         0.1287
     30 H4          1.4205    5.6644    2.6945 H         1 <1>         0.1227
     31 H5          0.2138    6.6816    4.5802 H         1 <1>         0.1171
     32 H6          3.7288    2.6895    2.9561 H         1 <1>         0.1632
     33 H7          2.2982    4.8842    1.3654 H         1 <1>         0.1484
     34 H8          5.8051    0.1229    0.8952 H         1 <1>         0.1436
     35 H9          7.0204   -0.9499   -0.9278 H         1 <1>         0.1367
     36 H10         6.9701   -0.0115   -3.1971 H         1 <1>         0.1233
     37 H11         5.6884    2.0306   -3.6748 H         1 <1>         0.1455
     38 H12         4.4520    6.4926   -0.6135 H         1 <1>         0.1416
     39 H13         3.1107    8.5330   -0.9167 H         1 <1>         0.1373
     40 H14        -0.3523    6.1463   -1.6752 H         1 <1>         0.1371
     41 H15         0.9894    4.1045   -1.3827 H         1 <1>         0.1413
     42 H16         0.1507    8.9199   -0.6591 H         1 <1>         0.3607
@<TRIPOS>BOND
     1    1    6 ar
     2    1    2 ar
     3    1   27 1
     4    2    3 ar
     5    2   28 1
     6    3    4 ar
     7    3   29 1
     8    4    5 ar
     9    4    7 1
    10    5    6 ar
    11    5   30 1
    12    6   31 1
    13    7    8 2
    14    7   32 1
    15    8    9 1
    16    8   33 1
    17    9   19 1
    18    9   10 2
    19   10   11 1
    20   11   16 ar
    21   11   12 ar
    22   12   13 ar
    23   12   34 1
    24   13   14 ar
    25   13   35 1
    26   14   15 ar
    27   14   36 1
    28   15   16 ar
    29   15   37 1
    30   16   17 1
    31   17   18 2
    32   17   19 am
    33   19   20 1
    34   20   25 ar
    35   20   21 ar
    36   21   22 ar
    37   21   38 1
    38   22   23 ar
    39   22   39 1
    40   23   24 ar
    41   23   26 1
    42   24   25 ar
    43   24   40 1
    44   25   41 1
    45   26   42 1
@<TRIPOS>Similarity
1.0392
@<TRIPOS>ShapeSim
0.6014
@<TRIPOS>PharmSim
0.4378
# END
# Name:		ZINC03902181
# Created and modified by SHAFTS on Mon Jun 23 14:53:19 2014

# 

@<TRIPOS>MOLECULE
ZINC03902181
   42    45     0
SMALL
USER_CHARGE


@<TRIPOS>ATOM
      1 C1          1.0082    5.3205    6.0255 C.ar      1 <1>        -0.1051
      2 C2          1.8319    4.2313    6.2507 C.ar      1 <1>        -0.1013
      3 C3          2.5104    3.6470    5.2021 C.ar      1 <1>        -0.0916
      4 C4          2.3642    4.1574    3.9086 C.ar      1 <1>        -0.0777
      5 C5          1.5346    5.2615    3.6900 C.ar      1 <1>        -0.0944
      6 C6          0.8585    5.8316    4.7480 C.ar      1 <1>        -0.1030
      7 C7          3.0851    3.5394    2.7834 C.2       1 <1>        -0.0547
      8 C8          2.9418    4.0342    1.5380 C.2       1 <1>         0.0021
      9 C9          3.6588    3.4195    0.4190 C.2       1 <1>         0.0596
     10 N1          4.3526    2.3275    0.6426 N.2       1 <1>        -0.3520
     11 C10         5.0353    1.7105   -0.3399 C.ar      1 <1>        -0.0073
     12 C11         5.7729    0.5468   -0.0976 C.ar      1 <1>        -0.0510
     13 C12         6.4529   -0.0515   -1.1202 C.ar      1 <1>        -0.0840
     14 C13         6.4245    0.4783   -2.4041 C.ar      1 <1>        -0.0899
     15 C14         5.7072    1.6233   -2.6747 C.ar      1 <1>        -0.0639
     16 C15         5.0057    2.2509   -1.6468 C.ar      1 <1>         0.0558
     17 C16         4.2236    3.4736   -1.8772 C.2       1 <1>         0.1531
     18 O1          4.1613    3.9847   -2.9803 O.2       1 <1>        -0.4532
     19 N2          3.5711    4.0077   -0.8185 N.am      1 <1>        -0.2358
     20 C17         2.8066    5.1699   -0.9851 C.ar      1 <1>        -0.0119
     21 C18         3.4006    6.4177   -0.8485 C.ar      1 <1>        -0.0528
     22 C19         2.6479    7.5626   -1.0185 C.ar      1 <1>        -0.0529
     23 C20         1.2957    7.4666   -1.3143 C.ar      1 <1>        -0.0318
     24 C21         0.7003    6.2202   -1.4452 C.ar      1 <1>        -0.0533
     25 C22         1.4531    5.0746   -1.2812 C.ar      1 <1>        -0.0533
     26 O2          0.5538    8.5943   -1.4755 O.3       1 <1>        -0.4350
     27 H1          0.4794    5.7739    6.8509 H         1 <1>         0.1194
     28 H2          1.9436    3.8381    7.2504 H         1 <1>         0.1186
     29 H3          3.1526    2.7970    5.3793 H         1 <1>         0.1287
     30 H4          1.4205    5.6644    2.6945 H         1 <1>         0.1227
     31 H5          0.2138    6.6816    4.5802 H         1 <1>         0.1171
     32 H6          3.7288    2.6895    2.9561 H         1 <1>         0.1632
     33 H7          2.2982    4.8842    1.3654 H         1 <1>         0.1484
     34 H8          5.8051    0.1229    0.8952 H         1 <1>         0.1436
     35 H9          7.0204   -0.9499   -0.9278 H         1 <1>         0.1367
     36 H10         6.9701   -0.0115   -3.1971 H         1 <1>         0.1233
     37 H11         5.6884    2.0306   -3.6748 H         1 <1>         0.1455
     38 H12         4.4520    6.4926   -0.6135 H         1 <1>         0.1416
     39 H13         3.1107    8.5330   -0.9167 H         1 <1>         0.1373
     40 H14        -0.3523    6.1463   -1.6752 H         1 <1>         0.1371
     41 H15         0.9894    4.1045   -1.3827 H         1 <1>         0.1413
     42 H16         0.1507    8.9199   -0.6591 H         1 <1>         0.3607
@<TRIPOS>BOND
     1    1    6 ar
     2    1    2 ar
     3    1   27 1
     4    2    3 ar
     5    2   28 1
     6    3    4 ar
     7    3   29 1
     8    4    5 ar
     9    4    7 1
    10    5    6 ar
    11    5   30 1
    12    6   31 1
    13    7    8 2
    14    7   32 1
    15    8    9 1
    16    8   33 1
    17    9   19 1
    18    9   10 2
    19   10   11 1
    20   11   16 ar
    21   11   12 ar
    22   12   13 ar
    23   12   34 1
    24   13   14 ar
    25   13   35 1
    26   14   15 ar
    27   14   36 1
    28   15   16 ar
    29   15   37 1
    30   16   17 1
    31   17   18 2
    32   17   19 am
    33   19   20 1
    34   20   25 ar
    35   20   21 ar
    36   21   22 ar
    37   21   38 1
    38   22   23 ar
    39   22   39 1
    40   23   24 ar
    41   23   26 1
    42   24   25 ar
    43   24   40 1
    44   25   41 1
    45   26   42 1
@<TRIPOS>Similarity
1.0392
@<TRIPOS>ShapeSim
0.6014
@<TRIPOS>PharmSim
0.4378
# END
# Name:		ZINC03902181
# Created and modified by SHAFTS on Mon Jun 23 14:53:19 2014

# 

@<TRIPOS>MOLECULE
ZINC03902181
   42    45     0
SMALL
USER_CHARGE


@<TRIPOS>ATOM
      1 C1          1.0082    5.3205    6.0255 C.ar      1 <1>        -0.1051
      2 C2          1.8319    4.2313    6.2507 C.ar      1 <1>        -0.1013
      3 C3          2.5104    3.6470    5.2021 C.ar      1 <1>        -0.0916
      4 C4          2.3642    4.1574    3.9086 C.ar      1 <1>        -0.0777
      5 C5          1.5346    5.2615    3.6900 C.ar      1 <1>        -0.0944
      6 C6          0.8585    5.8316    4.7480 C.ar      1 <1>        -0.1030
      7 C7          3.0851    3.5394    2.7834 C.2       1 <1>        -0.0547
      8 C8          2.9418    4.0342    1.5380 C.2       1 <1>         0.0021
      9 C9          3.6588    3.4195    0.4190 C.2       1 <1>         0.0596
     10 N1          4.3526    2.3275    0.6426 N.2       1 <1>        -0.3520
     11 C10         5.0353    1.7105   -0.3399 C.ar      1 <1>        -0.0073
     12 C11         5.7729    0.5468   -0.0976 C.ar      1 <1>        -0.0510
     13 C12         6.4529   -0.0515   -1.1202 C.ar      1 <1>        -0.0840
     14 C13         6.4245    0.4783   -2.4041 C.ar      1 <1>        -0.0899
     15 C14         5.7072    1.6233   -2.6747 C.ar      1 <1>        -0.0639
     16 C15         5.0057    2.2509   -1.6468 C.ar      1 <1>         0.0558
     17 C16         4.2236    3.4736   -1.8772 C.2       1 <1>         0.1531
     18 O1          4.1613    3.9847   -2.9803 O.2       1 <1>        -0.4532
     19 N2          3.5711    4.0077   -0.8185 N.am      1 <1>        -0.2358
     20 C17         2.8066    5.1699   -0.9851 C.ar      1 <1>        -0.0119
     21 C18         3.4006    6.4177   -0.8485 C.ar      1 <1>        -0.0528
     22 C19         2.6479    7.5626   -1.0185 C.ar      1 <1>        -0.0529
     23 C20         1.2957    7.4666   -1.3143 C.ar      1 <1>        -0.0318
     24 C21         0.7003    6.2202   -1.4452 C.ar      1 <1>        -0.0533
     25 C22         1.4531    5.0746   -1.2812 C.ar      1 <1>        -0.0533
     26 O2          0.5538    8.5943   -1.4755 O.3       1 <1>        -0.4350
     27 H1          0.4794    5.7739    6.8509 H         1 <1>         0.1194
     28 H2          1.9436    3.8381    7.2504 H         1 <1>         0.1186
     29 H3          3.1526    2.7970    5.3793 H         1 <1>         0.1287
     30 H4          1.4205    5.6644    2.6945 H         1 <1>         0.1227
     31 H5          0.2138    6.6816    4.5802 H         1 <1>         0.1171
     32 H6          3.7288    2.6895    2.9561 H         1 <1>         0.1632
     33 H7          2.2982    4.8842    1.3654 H         1 <1>         0.1484
     34 H8          5.8051    0.1229    0.8952 H         1 <1>         0.1436
     35 H9          7.0204   -0.9499   -0.9278 H         1 <1>         0.1367
     36 H10         6.9701   -0.0115   -3.1971 H         1 <1>         0.1233
     37 H11         5.6884    2.0306   -3.6748 H         1 <1>         0.1455
     38 H12         4.4520    6.4926   -0.6135 H         1 <1>         0.1416
     39 H13         3.1107    8.5330   -0.9167 H         1 <1>         0.1373
     40 H14        -0.3523    6.1463   -1.6752 H         1 <1>         0.1371
     41 H15         0.9894    4.1045   -1.3827 H         1 <1>         0.1413
     42 H16         0.1507    8.9199   -0.6591 H         1 <1>         0.3607
@<TRIPOS>BOND
     1    1    6 ar
     2    1    2 ar
     3    1   27 1
     4    2    3 ar
     5    2   28 1
     6    3    4 ar
     7    3   29 1
     8    4    5 ar
     9    4    7 1
    10    5    6 ar
    11    5   30 1
    12    6   31 1
    13    7    8 2
    14    7   32 1
    15    8    9 1
    16    8   33 1
    17    9   19 1
    18    9   10 2
    19   10   11 1
    20   11   16 ar
    21   11   12 ar
    22   12   13 ar
    23   12   34 1
    24   13   14 ar
    25   13   35 1
    26   14   15 ar
    27   14   36 1
    28   15   16 ar
    29   15   37 1
    30   16   17 1
    31   17   18 2
    32   17   19 am
    33   19   20 1
    34   20   25 ar
    35   20   21 ar
    36   21   22 ar
    37   21   38 1
    38   22   23 ar
    39   22   39 1
    40   23   24 ar
    41   23   26 1
    42   24   25 ar
    43   24   40 1
    44   25   41 1
    45   26   42 1
@<TRIPOS>Similarity
1.0392
@<TRIPOS>ShapeSim
0.6014
@<TRIPOS>PharmSim
0.4378
# END
# Name:		ZINC03902181
# Created and modified by SHAFTS on Mon Jun 23 14:53:19 2014

# 

@<TRIPOS>MOLECULE
ZINC03902181
   42    45     0
SMALL
USER_CHARGE


@<TRIPOS>ATOM
      1 C1          1.0082    5.3205    6.0255 C.ar      1 <1>        -0.1051
      2 C2          1.8319    4.2313    6.2507 C.ar      1 <1>        -0.1013
      3 C3          2.5104    3.6470    5.2021 C.ar      1 <1>        -0.0916
      4 C4          2.3642    4.1574    3.9086 C.ar      1 <1>        -0.0777
      5 C5          1.5346    5.2615    3.6900 C.ar      1 <1>        -0.0944
      6 C6          0.8585    5.8316    4.7480 C.ar      1 <1>        -0.1030
      7 C7          3.0851    3.5394    2.7834 C.2       1 <1>        -0.0547
      8 C8          2.9418    4.0342    1.5380 C.2       1 <1>         0.0021
      9 C9          3.6588    3.4195    0.4190 C.2       1 <1>         0.0596
     10 N1          4.3526    2.3275    0.6426 N.2       1 <1>        -0.3520
     11 C10         5.0353    1.7105   -0.3399 C.ar      1 <1>        -0.0073
     12 C11         5.7729    0.5468   -0.0976 C.ar      1 <1>        -0.0510
     13 C12         6.4529   -0.0515   -1.1202 C.ar      1 <1>        -0.0840
     14 C13         6.4245    0.4783   -2.4041 C.ar      1 <1>        -0.0899
     15 C14         5.7072    1.6233   -2.6747 C.ar      1 <1>        -0.0639
     16 C15         5.0057    2.2509   -1.6468 C.ar      1 <1>         0.0558
     17 C16         4.2236    3.4736   -1.8772 C.2       1 <1>         0.1531
     18 O1          4.1613    3.9847   -2.9803 O.2       1 <1>        -0.4532
     19 N2          3.5711    4.0077   -0.8185 N.am      1 <1>        -0.2358
     20 C17         2.8066    5.1699   -0.9851 C.ar      1 <1>        -0.0119
     21 C18         3.4006    6.4177   -0.8485 C.ar      1 <1>        -0.0528
     22 C19         2.6479    7.5626   -1.0185 C.ar      1 <1>        -0.0529
     23 C20         1.2957    7.4666   -1.3143 C.ar      1 <1>        -0.0318
     24 C21         0.7003    6.2202   -1.4452 C.ar      1 <1>        -0.0533
     25 C22         1.4531    5.0746   -1.2812 C.ar      1 <1>        -0.0533
     26 O2          0.5538    8.5943   -1.4755 O.3       1 <1>        -0.4350
     27 H1          0.4794    5.7739    6.8509 H         1 <1>         0.1194
     28 H2          1.9436    3.8381    7.2504 H         1 <1>         0.1186
     29 H3          3.1526    2.7970    5.3793 H         1 <1>         0.1287
     30 H4          1.4205    5.6644    2.6945 H         1 <1>         0.1227
     31 H5          0.2138    6.6816    4.5802 H         1 <1>         0.1171
     32 H6          3.7288    2.6895    2.9561 H         1 <1>         0.1632
     33 H7          2.2982    4.8842    1.3654 H         1 <1>         0.1484
     34 H8          5.8051    0.1229    0.8952 H         1 <1>         0.1436
     35 H9          7.0204   -0.9499   -0.9278 H         1 <1>         0.1367
     36 H10         6.9701   -0.0115   -3.1971 H         1 <1>         0.1233
     37 H11         5.6884    2.0306   -3.6748 H         1 <1>         0.1455
     38 H12         4.4520    6.4926   -0.6135 H         1 <1>         0.1416
     39 H13         3.1107    8.5330   -0.9167 H         1 <1>         0.1373
     40 H14        -0.3523    6.1463   -1.6752 H         1 <1>         0.1371
     41 H15         0.9894    4.1045   -1.3827 H         1 <1>         0.1413
     42 H16         0.1507    8.9199   -0.6591 H         1 <1>         0.3607
@<TRIPOS>BOND
     1    1    6 ar
     2    1    2 ar
     3    1   27 1
     4    2    3 ar
     5    2   28 1
     6    3    4 ar
     7    3   29 1
     8    4    5 ar
     9    4    7 1
    10    5    6 ar
    11    5   30 1
    12    6   31 1
    13    7    8 2
    14    7   32 1
    15    8    9 1
    16    8   33 1
    17    9   19 1
    18    9   10 2
    19   10   11 1
    20   11   16 ar
    21   11   12 ar
    22   12   13 ar
    23   12   34 1
    24   13   14 ar
    25   13   35 1
    26   14   15 ar
    27   14   36 1
    28   15   16 ar
    29   15   37 1
    30   16   17 1
    31   17   18 2
    32   17   19 am
    33   19   20 1
    34   20   25 ar
    35   20   21 ar
    36   21   22 ar
    37   21   38 1
    38   22   23 ar
    39   22   39 1
    40   23   24 ar
    41   23   26 1
    42   24   25 ar
    43   24   40 1
    44   25   41 1
    45   26   42 1
@<TRIPOS>Similarity
1.0392
@<TRIPOS>ShapeSim
0.6014
@<TRIPOS>PharmSim
0.4378
# END
# Name:		ZINC03902181
# Created and modified by SHAFTS on Mon Jun 23 14:53:19 2014

# 

@<TRIPOS>MOLECULE
ZINC03902181
   42    45     0
SMALL
USER_CHARGE


@<TRIPOS>ATOM
      1 C1          1.0082    5.3205    6.0255 C.ar      1 <1>        -0.1051
      2 C2          1.8319    4.2313    6.2507 C.ar      1 <1>        -0.1013
      3 C3          2.5104    3.6470    5.2021 C.ar      1 <1>        -0.0916
      4 C4          2.3642    4.1574    3.9086 C.ar      1 <1>        -0.0777
      5 C5          1.5346    5.2615    3.6900 C.ar      1 <1>        -0.0944
      6 C6          0.8585    5.8316    4.7480 C.ar      1 <1>        -0.1030
      7 C7          3.0851    3.5394    2.7834 C.2       1 <1>        -0.0547
      8 C8          2.9418    4.0342    1.5380 C.2       1 <1>         0.0021
      9 C9          3.6588    3.4195    0.4190 C.2       1 <1>         0.0596
     10 N1          4.3526    2.3275    0.6426 N.2       1 <1>        -0.3520
     11 C10         5.0353    1.7105   -0.3399 C.ar      1 <1>        -0.0073
     12 C11         5.7729    0.5468   -0.0976 C.ar      1 <1>        -0.0510
     13 C12         6.4529   -0.0515   -1.1202 C.ar      1 <1>        -0.0840
     14 C13         6.4245    0.4783   -2.4041 C.ar      1 <1>        -0.0899
     15 C14         5.7072    1.6233   -2.6747 C.ar      1 <1>        -0.0639
     16 C15         5.0057    2.2509   -1.6468 C.ar      1 <1>         0.0558
     17 C16         4.2236    3.4736   -1.8772 C.2       1 <1>         0.1531
     18 O1          4.1613    3.9847   -2.9803 O.2       1 <1>        -0.4532
     19 N2          3.5711    4.0077   -0.8185 N.am      1 <1>        -0.2358
     20 C17         2.8066    5.1699   -0.9851 C.ar      1 <1>        -0.0119
     21 C18         3.4006    6.4177   -0.8485 C.ar      1 <1>        -0.0528
     22 C19         2.6479    7.5626   -1.0185 C.ar      1 <1>        -0.0529
     23 C20         1.2957    7.4666   -1.3143 C.ar      1 <1>        -0.0318
     24 C21         0.7003    6.2202   -1.4452 C.ar      1 <1>        -0.0533
     25 C22         1.4531    5.0746   -1.2812 C.ar      1 <1>        -0.0533
     26 O2          0.5538    8.5943   -1.4755 O.3       1 <1>        -0.4350
     27 H1          0.4794    5.7739    6.8509 H         1 <1>         0.1194
     28 H2          1.9436    3.8381    7.2504 H         1 <1>         0.1186
     29 H3          3.1526    2.7970    5.3793 H         1 <1>         0.1287
     30 H4          1.4205    5.6644    2.6945 H         1 <1>         0.1227
     31 H5          0.2138    6.6816    4.5802 H         1 <1>         0.1171
     32 H6          3.7288    2.6895    2.9561 H         1 <1>         0.1632
     33 H7          2.2982    4.8842    1.3654 H         1 <1>         0.1484
     34 H8          5.8051    0.1229    0.8952 H         1 <1>         0.1436
     35 H9          7.0204   -0.9499   -0.9278 H         1 <1>         0.1367
     36 H10         6.9701   -0.0115   -3.1971 H         1 <1>         0.1233
     37 H11         5.6884    2.0306   -3.6748 H         1 <1>         0.1455
     38 H12         4.4520    6.4926   -0.6135 H         1 <1>         0.1416
     39 H13         3.1107    8.5330   -0.9167 H         1 <1>         0.1373
     40 H14        -0.3523    6.1463   -1.6752 H         1 <1>         0.1371
     41 H15         0.9894    4.1045   -1.3827 H         1 <1>         0.1413
     42 H16         0.1507    8.9199   -0.6591 H         1 <1>         0.3607
@<TRIPOS>BOND
     1    1    6 ar
     2    1    2 ar
     3    1   27 1
     4    2    3 ar
     5    2   28 1
     6    3    4 ar
     7    3   29 1
     8    4    5 ar
     9    4    7 1
    10    5    6 ar
    11    5   30 1
    12    6   31 1
    13    7    8 2
    14    7   32 1
    15    8    9 1
    16    8   33 1
    17    9   19 1
    18    9   10 2
    19   10   11 1
    20   11   16 ar
    21   11   12 ar
    22   12   13 ar
    23   12   34 1
    24   13   14 ar
    25   13   35 1
    26   14   15 ar
    27   14   36 1
    28   15   16 ar
    29   15   37 1
    30   16   17 1
    31   17   18 2
    32   17   19 am
    33   19   20 1
    34   20   25 ar
    35   20   21 ar
    36   21   22 ar
    37   21   38 1
    38   22   23 ar
    39   22   39 1
    40   23   24 ar
    41   23   26 1
    42   24   25 ar
    43   24   40 1
    44   25   41 1
    45   26   42 1
@<TRIPOS>Similarity
1.0392
@<TRIPOS>ShapeSim
0.6014
@<TRIPOS>PharmSim
0.4378
# END
# Name:		ZINC03902181
# Created and modified by SHAFTS on Mon Jun 23 14:53:19 2014

# 

@<TRIPOS>MOLECULE
ZINC03902181
   42    45     0
SMALL
USER_CHARGE


@<TRIPOS>ATOM
      1 C1          1.0082    5.3205    6.0255 C.ar      1 <1>        -0.1051
      2 C2          1.8319    4.2313    6.2507 C.ar      1 <1>        -0.1013
      3 C3          2.5104    3.6470    5.2021 C.ar      1 <1>        -0.0916
      4 C4          2.3642    4.1574    3.9086 C.ar      1 <1>        -0.0777
      5 C5          1.5346    5.2615    3.6900 C.ar      1 <1>        -0.0944
      6 C6          0.8585    5.8316    4.7480 C.ar      1 <1>        -0.1030
      7 C7          3.0851    3.5394    2.7834 C.2       1 <1>        -0.0547
      8 C8          2.9418    4.0342    1.5380 C.2       1 <1>         0.0021
      9 C9          3.6588    3.4195    0.4190 C.2       1 <1>         0.0596
     10 N1          4.3526    2.3275    0.6426 N.2       1 <1>        -0.3520
     11 C10         5.0353    1.7105   -0.3399 C.ar      1 <1>        -0.0073
     12 C11         5.7729    0.5468   -0.0976 C.ar      1 <1>        -0.0510
     13 C12         6.4529   -0.0515   -1.1202 C.ar      1 <1>        -0.0840
     14 C13         6.4245    0.4783   -2.4041 C.ar      1 <1>        -0.0899
     15 C14         5.7072    1.6233   -2.6747 C.ar      1 <1>        -0.0639
     16 C15         5.0057    2.2509   -1.6468 C.ar      1 <1>         0.0558
     17 C16         4.2236    3.4736   -1.8772 C.2       1 <1>         0.1531
     18 O1          4.1613    3.9847   -2.9803 O.2       1 <1>        -0.4532
     19 N2          3.5711    4.0077   -0.8185 N.am      1 <1>        -0.2358
     20 C17         2.8066    5.1699   -0.9851 C.ar      1 <1>        -0.0119
     21 C18         3.4006    6.4177   -0.8485 C.ar      1 <1>        -0.0528
     22 C19         2.6479    7.5626   -1.0185 C.ar      1 <1>        -0.0529
     23 C20         1.2957    7.4666   -1.3143 C.ar      1 <1>        -0.0318
     24 C21         0.7003    6.2202   -1.4452 C.ar      1 <1>        -0.0533
     25 C22         1.4531    5.0746   -1.2812 C.ar      1 <1>        -0.0533
     26 O2          0.5538    8.5943   -1.4755 O.3       1 <1>        -0.4350
     27 H1          0.4794    5.7739    6.8509 H         1 <1>         0.1194
     28 H2          1.9436    3.8381    7.2504 H         1 <1>         0.1186
     29 H3          3.1526    2.7970    5.3793 H         1 <1>         0.1287
     30 H4          1.4205    5.6644    2.6945 H         1 <1>         0.1227
     31 H5          0.2138    6.6816    4.5802 H         1 <1>         0.1171
     32 H6          3.7288    2.6895    2.9561 H         1 <1>         0.1632
     33 H7          2.2982    4.8842    1.3654 H         1 <1>         0.1484
     34 H8          5.8051    0.1229    0.8952 H         1 <1>         0.1436
     35 H9          7.0204   -0.9499   -0.9278 H         1 <1>         0.1367
     36 H10         6.9701   -0.0115   -3.1971 H         1 <1>         0.1233
     37 H11         5.6884    2.0306   -3.6748 H         1 <1>         0.1455
     38 H12         4.4520    6.4926   -0.6135 H         1 <1>         0.1416
     39 H13         3.1107    8.5330   -0.9167 H         1 <1>         0.1373
     40 H14        -0.3523    6.1463   -1.6752 H         1 <1>         0.1371
     41 H15         0.9894    4.1045   -1.3827 H         1 <1>         0.1413
     42 H16         0.1507    8.9199   -0.6591 H         1 <1>         0.3607
@<TRIPOS>BOND
     1    1    6 ar
     2    1    2 ar
     3    1   27 1
     4    2    3 ar
     5    2   28 1
     6    3    4 ar
     7    3   29 1
     8    4    5 ar
     9    4    7 1
    10    5    6 ar
    11    5   30 1
    12    6   31 1
    13    7    8 2
    14    7   32 1
    15    8    9 1
    16    8   33 1
    17    9   19 1
    18    9   10 2
    19   10   11 1
    20   11   16 ar
    21   11   12 ar
    22   12   13 ar
    23   12   34 1
    24   13   14 ar
    25   13   35 1
    26   14   15 ar
    27   14   36 1
    28   15   16 ar
    29   15   37 1
    30   16   17 1
    31   17   18 2
    32   17   19 am
    33   19   20 1
    34   20   25 ar
    35   20   21 ar
    36   21   22 ar
    37   21   38 1
    38   22   23 ar
    39   22   39 1
    40   23   24 ar
    41   23   26 1
    42   24   25 ar
    43   24   40 1
    44   25   41 1
    45   26   42 1
@<TRIPOS>Similarity
1.0392
@<TRIPOS>ShapeSim
0.6014
@<TRIPOS>PharmSim
0.4378
# END
# Name:		ZINC03902181
# Created and modified by SHAFTS on Mon Jun 23 14:53:19 2014

# 

@<TRIPOS>MOLECULE
ZINC03902181
   42    45     0
SMALL
USER_CHARGE


@<TRIPOS>ATOM
      1 C1          1.0082    5.3205    6.0255 C.ar      1 <1>        -0.1051
      2 C2          1.8319    4.2313    6.2507 C.ar      1 <1>        -0.1013
      3 C3          2.5104    3.6470    5.2021 C.ar      1 <1>        -0.0916
      4 C4          2.3642    4.1574    3.9086 C.ar      1 <1>        -0.0777
      5 C5          1.5346    5.2615    3.6900 C.ar      1 <1>        -0.0944
      6 C6          0.8585    5.8316    4.7480 C.ar      1 <1>        -0.1030
      7 C7          3.0851    3.5394    2.7834 C.2       1 <1>        -0.0547
      8 C8          2.9418    4.0342    1.5380 C.2       1 <1>         0.0021
      9 C9          3.6588    3.4195    0.4190 C.2       1 <1>         0.0596
     10 N1          4.3526    2.3275    0.6426 N.2       1 <1>        -0.3520
     11 C10         5.0353    1.7105   -0.3399 C.ar      1 <1>        -0.0073
     12 C11         5.7729    0.5468   -0.0976 C.ar      1 <1>        -0.0510
     13 C12         6.4529   -0.0515   -1.1202 C.ar      1 <1>        -0.0840
     14 C13         6.4245    0.4783   -2.4041 C.ar      1 <1>        -0.0899
     15 C14         5.7072    1.6233   -2.6747 C.ar      1 <1>        -0.0639
     16 C15         5.0057    2.2509   -1.6468 C.ar      1 <1>         0.0558
     17 C16         4.2236    3.4736   -1.8772 C.2       1 <1>         0.1531
     18 O1          4.1613    3.9847   -2.9803 O.2       1 <1>        -0.4532
     19 N2          3.5711    4.0077   -0.8185 N.am      1 <1>        -0.2358
     20 C17         2.8066    5.1699   -0.9851 C.ar      1 <1>        -0.0119
     21 C18         3.4006    6.4177   -0.8485 C.ar      1 <1>        -0.0528
     22 C19         2.6479    7.5626   -1.0185 C.ar      1 <1>        -0.0529
     23 C20         1.2957    7.4666   -1.3143 C.ar      1 <1>        -0.0318
     24 C21         0.7003    6.2202   -1.4452 C.ar      1 <1>        -0.0533
     25 C22         1.4531    5.0746   -1.2812 C.ar      1 <1>        -0.0533
     26 O2          0.5538    8.5943   -1.4755 O.3       1 <1>        -0.4350
     27 H1          0.4794    5.7739    6.8509 H         1 <1>         0.1194
     28 H2          1.9436    3.8381    7.2504 H         1 <1>         0.1186
     29 H3          3.1526    2.7970    5.3793 H         1 <1>         0.1287
     30 H4          1.4205    5.6644    2.6945 H         1 <1>         0.1227
     31 H5          0.2138    6.6816    4.5802 H         1 <1>         0.1171
     32 H6          3.7288    2.6895    2.9561 H         1 <1>         0.1632
     33 H7          2.2982    4.8842    1.3654 H         1 <1>         0.1484
     34 H8          5.8051    0.1229    0.8952 H         1 <1>         0.1436
     35 H9          7.0204   -0.9499   -0.9278 H         1 <1>         0.1367
     36 H10         6.9701   -0.0115   -3.1971 H         1 <1>         0.1233
     37 H11         5.6884    2.0306   -3.6748 H         1 <1>         0.1455
     38 H12         4.4520    6.4926   -0.6135 H         1 <1>         0.1416
     39 H13         3.1107    8.5330   -0.9167 H         1 <1>         0.1373
     40 H14        -0.3523    6.1463   -1.6752 H         1 <1>         0.1371
     41 H15         0.9894    4.1045   -1.3827 H         1 <1>         0.1413
     42 H16         0.1507    8.9199   -0.6591 H         1 <1>         0.3607
@<TRIPOS>BOND
     1    1    6 ar
     2    1    2 ar
     3    1   27 1
     4    2    3 ar
     5    2   28 1
     6    3    4 ar
     7    3   29 1
     8    4    5 ar
     9    4    7 1
    10    5    6 ar
    11    5   30 1
    12    6   31 1
    13    7    8 2
    14    7   32 1
    15    8    9 1
    16    8   33 1
    17    9   19 1
    18    9   10 2
    19   10   11 1
    20   11   16 ar
    21   11   12 ar
    22   12   13 ar
    23   12   34 1
    24   13   14 ar
    25   13   35 1
    26   14   15 ar
    27   14   36 1
    28   15   16 ar
    29   15   37 1
    30   16   17 1
    31   17   18 2
    32   17   19 am
    33   19   20 1
    34   20   25 ar
    35   20   21 ar
    36   21   22 ar
    37   21   38 1
    38   22   23 ar
    39   22   39 1
    40   23   24 ar
    41   23   26 1
    42   24   25 ar
    43   24   40 1
    44   25   41 1
    45   26   42 1
@<TRIPOS>Similarity
1.0392
@<TRIPOS>ShapeSim
0.6014
@<TRIPOS>PharmSim
0.4378
# END
# Name:		ZINC03902181
# Created and modified by SHAFTS on Mon Jun 23 14:53:19 2014

# 

@<TRIPOS>MOLECULE
ZINC03902181
   42    45     0
SMALL
USER_CHARGE


@<TRIPOS>ATOM
      1 C1          1.0082    5.3205    6.0255 C.ar      1 <1>        -0.1051
      2 C2          1.8319    4.2313    6.2507 C.ar      1 <1>        -0.1013
      3 C3          2.5104    3.6470    5.2021 C.ar      1 <1>        -0.0916
      4 C4          2.3642    4.1574    3.9086 C.ar      1 <1>        -0.0777
      5 C5          1.5346    5.2615    3.6900 C.ar      1 <1>        -0.0944
      6 C6          0.8585    5.8316    4.7480 C.ar      1 <1>        -0.1030
      7 C7          3.0851    3.5394    2.7834 C.2       1 <1>        -0.0547
      8 C8          2.9418    4.0342    1.5380 C.2       1 <1>         0.0021
      9 C9          3.6588    3.4195    0.4190 C.2       1 <1>         0.0596
     10 N1          4.3526    2.3275    0.6426 N.2       1 <1>        -0.3520
     11 C10         5.0353    1.7105   -0.3399 C.ar      1 <1>        -0.0073
     12 C11         5.7729    0.5468   -0.0976 C.ar      1 <1>        -0.0510
     13 C12         6.4529   -0.0515   -1.1202 C.ar      1 <1>        -0.0840
     14 C13         6.4245    0.4783   -2.4041 C.ar      1 <1>        -0.0899
     15 C14         5.7072    1.6233   -2.6747 C.ar      1 <1>        -0.0639
     16 C15         5.0057    2.2509   -1.6468 C.ar      1 <1>         0.0558
     17 C16         4.2236    3.4736   -1.8772 C.2       1 <1>         0.1531
     18 O1          4.1613    3.9847   -2.9803 O.2       1 <1>        -0.4532
     19 N2          3.5711    4.0077   -0.8185 N.am      1 <1>        -0.2358
     20 C17         2.8066    5.1699   -0.9851 C.ar      1 <1>        -0.0119
     21 C18         3.4006    6.4177   -0.8485 C.ar      1 <1>        -0.0528
     22 C19         2.6479    7.5626   -1.0185 C.ar      1 <1>        -0.0529
     23 C20         1.2957    7.4666   -1.3143 C.ar      1 <1>        -0.0318
     24 C21         0.7003    6.2202   -1.4452 C.ar      1 <1>        -0.0533
     25 C22         1.4531    5.0746   -1.2812 C.ar      1 <1>        -0.0533
     26 O2          0.5538    8.5943   -1.4755 O.3       1 <1>        -0.4350
     27 H1          0.4794    5.7739    6.8509 H         1 <1>         0.1194
     28 H2          1.9436    3.8381    7.2504 H         1 <1>         0.1186
     29 H3          3.1526    2.7970    5.3793 H         1 <1>         0.1287
     30 H4          1.4205    5.6644    2.6945 H         1 <1>         0.1227
     31 H5          0.2138    6.6816    4.5802 H         1 <1>         0.1171
     32 H6          3.7288    2.6895    2.9561 H         1 <1>         0.1632
     33 H7          2.2982    4.8842    1.3654 H         1 <1>         0.1484
     34 H8          5.8051    0.1229    0.8952 H         1 <1>         0.1436
     35 H9          7.0204   -0.9499   -0.9278 H         1 <1>         0.1367
     36 H10         6.9701   -0.0115   -3.1971 H         1 <1>         0.1233
     37 H11         5.6884    2.0306   -3.6748 H         1 <1>         0.1455
     38 H12         4.4520    6.4926   -0.6135 H         1 <1>         0.1416
     39 H13         3.1107    8.5330   -0.9167 H         1 <1>         0.1373
     40 H14        -0.3523    6.1463   -1.6752 H         1 <1>         0.1371
     41 H15         0.9894    4.1045   -1.3827 H         1 <1>         0.1413
     42 H16         0.1507    8.9199   -0.6591 H         1 <1>         0.3607
@<TRIPOS>BOND
     1    1    6 ar
     2    1    2 ar
     3    1   27 1
     4    2    3 ar
     5    2   28 1
     6    3    4 ar
     7    3   29 1
     8    4    5 ar
     9    4    7 1
    10    5    6 ar
    11    5   30 1
    12    6   31 1
    13    7    8 2
    14    7   32 1
    15    8    9 1
    16    8   33 1
    17    9   19 1
    18    9   10 2
    19   10   11 1
    20   11   16 ar
    21   11   12 ar
    22   12   13 ar
    23   12   34 1
    24   13   14 ar
    25   13   35 1
    26   14   15 ar
    27   14   36 1
    28   15   16 ar
    29   15   37 1
    30   16   17 1
    31   17   18 2
    32   17   19 am
    33   19   20 1
    34   20   25 ar
    35   20   21 ar
    36   21   22 ar
    37   21   38 1
    38   22   23 ar
    39   22   39 1
    40   23   24 ar
    41   23   26 1
    42   24   25 ar
    43   24   40 1
    44   25   41 1
    45   26   42 1
@<TRIPOS>Similarity
1.0392
@<TRIPOS>ShapeSim
0.6014
@<TRIPOS>PharmSim
0.4378
# END
# Name:		ZINC03902181
# Created and modified by SHAFTS on Mon Jun 23 14:53:19 2014

# 

@<TRIPOS>MOLECULE
ZINC03902181
   42    45     0
SMALL
USER_CHARGE


@<TRIPOS>ATOM
      1 C1          1.0082    5.3205    6.0255 C.ar      1 <1>        -0.1051
      2 C2          1.8319    4.2313    6.2507 C.ar      1 <1>        -0.1013
      3 C3          2.5104    3.6470    5.2021 C.ar      1 <1>        -0.0916
      4 C4          2.3642    4.1574    3.9086 C.ar      1 <1>        -0.0777
      5 C5          1.5346    5.2615    3.6900 C.ar      1 <1>        -0.0944
      6 C6          0.8585    5.8316    4.7480 C.ar      1 <1>        -0.1030
      7 C7          3.0851    3.5394    2.7834 C.2       1 <1>        -0.0547
      8 C8          2.9418    4.0342    1.5380 C.2       1 <1>         0.0021
      9 C9          3.6588    3.4195    0.4190 C.2       1 <1>         0.0596
     10 N1          4.3526    2.3275    0.6426 N.2       1 <1>        -0.3520
     11 C10         5.0353    1.7105   -0.3399 C.ar      1 <1>        -0.0073
     12 C11         5.7729    0.5468   -0.0976 C.ar      1 <1>        -0.0510
     13 C12         6.4529   -0.0515   -1.1202 C.ar      1 <1>        -0.0840
     14 C13         6.4245    0.4783   -2.4041 C.ar      1 <1>        -0.0899
     15 C14         5.7072    1.6233   -2.6747 C.ar      1 <1>        -0.0639
     16 C15         5.0057    2.2509   -1.6468 C.ar      1 <1>         0.0558
     17 C16         4.2236    3.4736   -1.8772 C.2       1 <1>         0.1531
     18 O1          4.1613    3.9847   -2.9803 O.2       1 <1>        -0.4532
     19 N2          3.5711    4.0077   -0.8185 N.am      1 <1>        -0.2358
     20 C17         2.8066    5.1699   -0.9851 C.ar      1 <1>        -0.0119
     21 C18         3.4006    6.4177   -0.8485 C.ar      1 <1>        -0.0528
     22 C19         2.6479    7.5626   -1.0185 C.ar      1 <1>        -0.0529
     23 C20         1.2957    7.4666   -1.3143 C.ar      1 <1>        -0.0318
     24 C21         0.7003    6.2202   -1.4452 C.ar      1 <1>        -0.0533
     25 C22         1.4531    5.0746   -1.2812 C.ar      1 <1>        -0.0533
     26 O2          0.5538    8.5943   -1.4755 O.3       1 <1>        -0.4350
     27 H1          0.4794    5.7739    6.8509 H         1 <1>         0.1194
     28 H2          1.9436    3.8381    7.2504 H         1 <1>         0.1186
     29 H3          3.1526    2.7970    5.3793 H         1 <1>         0.1287
     30 H4          1.4205    5.6644    2.6945 H         1 <1>         0.1227
     31 H5          0.2138    6.6816    4.5802 H         1 <1>         0.1171
     32 H6          3.7288    2.6895    2.9561 H         1 <1>         0.1632
     33 H7          2.2982    4.8842    1.3654 H         1 <1>         0.1484
     34 H8          5.8051    0.1229    0.8952 H         1 <1>         0.1436
     35 H9          7.0204   -0.9499   -0.9278 H         1 <1>         0.1367
     36 H10         6.9701   -0.0115   -3.1971 H         1 <1>         0.1233
     37 H11         5.6884    2.0306   -3.6748 H         1 <1>         0.1455
     38 H12         4.4520    6.4926   -0.6135 H         1 <1>         0.1416
     39 H13         3.1107    8.5330   -0.9167 H         1 <1>         0.1373
     40 H14        -0.3523    6.1463   -1.6752 H         1 <1>         0.1371
     41 H15         0.9894    4.1045   -1.3827 H         1 <1>         0.1413
     42 H16         0.1507    8.9199   -0.6591 H         1 <1>         0.3607
@<TRIPOS>BOND
     1    1    6 ar
     2    1    2 ar
     3    1   27 1
     4    2    3 ar
     5    2   28 1
     6    3    4 ar
     7    3   29 1
     8    4    5 ar
     9    4    7 1
    10    5    6 ar
    11    5   30 1
    12    6   31 1
    13    7    8 2
    14    7   32 1
    15    8    9 1
    16    8   33 1
    17    9   19 1
    18    9   10 2
    19   10   11 1
    20   11   16 ar
    21   11   12 ar
    22   12   13 ar
    23   12   34 1
    24   13   14 ar
    25   13   35 1
    26   14   15 ar
    27   14   36 1
    28   15   16 ar
    29   15   37 1
    30   16   17 1
    31   17   18 2
    32   17   19 am
    33   19   20 1
    34   20   25 ar
    35   20   21 ar
    36   21   22 ar
    37   21   38 1
    38   22   23 ar
    39   22   39 1
    40   23   24 ar
    41   23   26 1
    42   24   25 ar
    43   24   40 1
    44   25   41 1
    45   26   42 1
@<TRIPOS>Similarity
1.0392
@<TRIPOS>ShapeSim
0.6014
@<TRIPOS>PharmSim
0.4378
# END
# Name:		ZINC03902181
# Created and modified by SHAFTS on Mon Jun 23 14:53:19 2014

# 

@<TRIPOS>MOLECULE
ZINC03902181
   42    45     0
SMALL
USER_CHARGE


@<TRIPOS>ATOM
      1 C1          1.0082    5.3205    6.0255 C.ar      1 <1>        -0.1051
      2 C2          1.8319    4.2313    6.2507 C.ar      1 <1>        -0.1013
      3 C3          2.5104    3.6470    5.2021 C.ar      1 <1>        -0.0916
      4 C4          2.3642    4.1574    3.9086 C.ar      1 <1>        -0.0777
      5 C5          1.5346    5.2615    3.6900 C.ar      1 <1>        -0.0944
      6 C6          0.8585    5.8316    4.7480 C.ar      1 <1>        -0.1030
      7 C7          3.0851    3.5394    2.7834 C.2       1 <1>        -0.0547
      8 C8          2.9418    4.0342    1.5380 C.2       1 <1>         0.0021
      9 C9          3.6588    3.4195    0.4190 C.2       1 <1>         0.0596
     10 N1          4.3526    2.3275    0.6426 N.2       1 <1>        -0.3520
     11 C10         5.0353    1.7105   -0.3399 C.ar      1 <1>        -0.0073
     12 C11         5.7729    0.5468   -0.0976 C.ar      1 <1>        -0.0510
     13 C12         6.4529   -0.0515   -1.1202 C.ar      1 <1>        -0.0840
     14 C13         6.4245    0.4783   -2.4041 C.ar      1 <1>        -0.0899
     15 C14         5.7072    1.6233   -2.6747 C.ar      1 <1>        -0.0639
     16 C15         5.0057    2.2509   -1.6468 C.ar      1 <1>         0.0558
     17 C16         4.2236    3.4736   -1.8772 C.2       1 <1>         0.1531
     18 O1          4.1613    3.9847   -2.9803 O.2       1 <1>        -0.4532
     19 N2          3.5711    4.0077   -0.8185 N.am      1 <1>        -0.2358
     20 C17         2.8066    5.1699   -0.9851 C.ar      1 <1>        -0.0119
     21 C18         3.4006    6.4177   -0.8485 C.ar      1 <1>        -0.0528
     22 C19         2.6479    7.5626   -1.0185 C.ar      1 <1>        -0.0529
     23 C20         1.2957    7.4666   -1.3143 C.ar      1 <1>        -0.0318
     24 C21         0.7003    6.2202   -1.4452 C.ar      1 <1>        -0.0533
     25 C22         1.4531    5.0746   -1.2812 C.ar      1 <1>        -0.0533
     26 O2          0.5538    8.5943   -1.4755 O.3       1 <1>        -0.4350
     27 H1          0.4794    5.7739    6.8509 H         1 <1>         0.1194
     28 H2          1.9436    3.8381    7.2504 H         1 <1>         0.1186
     29 H3          3.1526    2.7970    5.3793 H         1 <1>         0.1287
     30 H4          1.4205    5.6644    2.6945 H         1 <1>         0.1227
     31 H5          0.2138    6.6816    4.5802 H         1 <1>         0.1171
     32 H6          3.7288    2.6895    2.9561 H         1 <1>         0.1632
     33 H7          2.2982    4.8842    1.3654 H         1 <1>         0.1484
     34 H8          5.8051    0.1229    0.8952 H         1 <1>         0.1436
     35 H9          7.0204   -0.9499   -0.9278 H         1 <1>         0.1367
     36 H10         6.9701   -0.0115   -3.1971 H         1 <1>         0.1233
     37 H11         5.6884    2.0306   -3.6748 H         1 <1>         0.1455
     38 H12         4.4520    6.4926   -0.6135 H         1 <1>         0.1416
     39 H13         3.1107    8.5330   -0.9167 H         1 <1>         0.1373
     40 H14        -0.3523    6.1463   -1.6752 H         1 <1>         0.1371
     41 H15         0.9894    4.1045   -1.3827 H         1 <1>         0.1413
     42 H16         0.1507    8.9199   -0.6591 H         1 <1>         0.3607
@<TRIPOS>BOND
     1    1    6 ar
     2    1    2 ar
     3    1   27 1
     4    2    3 ar
     5    2   28 1
     6    3    4 ar
     7    3   29 1
     8    4    5 ar
     9    4    7 1
    10    5    6 ar
    11    5   30 1
    12    6   31 1
    13    7    8 2
    14    7   32 1
    15    8    9 1
    16    8   33 1
    17    9   19 1
    18    9   10 2
    19   10   11 1
    20   11   16 ar
    21   11   12 ar
    22   12   13 ar
    23   12   34 1
    24   13   14 ar
    25   13   35 1
    26   14   15 ar
    27   14   36 1
    28   15   16 ar
    29   15   37 1
    30   16   17 1
    31   17   18 2
    32   17   19 am
    33   19   20 1
    34   20   25 ar
    35   20   21 ar
    36   21   22 ar
    37   21   38 1
    38   22   23 ar
    39   22   39 1
    40   23   24 ar
    41   23   26 1
    42   24   25 ar
    43   24   40 1
    44   25   41 1
    45   26   42 1
@<TRIPOS>Similarity
1.0392
@<TRIPOS>ShapeSim
0.6014
@<TRIPOS>PharmSim
0.4378
# END
# Name:		ZINC03902181
# Created and modified by SHAFTS on Mon Jun 23 14:53:19 2014

# 

@<TRIPOS>MOLECULE
ZINC03902181
   42    45     0
SMALL
USER_CHARGE


@<TRIPOS>ATOM
      1 C1          1.0082    5.3205    6.0255 C.ar      1 <1>        -0.1051
      2 C2          1.8319    4.2313    6.2507 C.ar      1 <1>        -0.1013
      3 C3          2.5104    3.6470    5.2021 C.ar      1 <1>        -0.0916
      4 C4          2.3642    4.1574    3.9086 C.ar      1 <1>        -0.0777
      5 C5          1.5346    5.2615    3.6900 C.ar      1 <1>        -0.0944
      6 C6          0.8585    5.8316    4.7480 C.ar      1 <1>        -0.1030
      7 C7          3.0851    3.5394    2.7834 C.2       1 <1>        -0.0547
      8 C8          2.9418    4.0342    1.5380 C.2       1 <1>         0.0021
      9 C9          3.6588    3.4195    0.4190 C.2       1 <1>         0.0596
     10 N1          4.3526    2.3275    0.6426 N.2       1 <1>        -0.3520
     11 C10         5.0353    1.7105   -0.3399 C.ar      1 <1>        -0.0073
     12 C11         5.7729    0.5468   -0.0976 C.ar      1 <1>        -0.0510
     13 C12         6.4529   -0.0515   -1.1202 C.ar      1 <1>        -0.0840
     14 C13         6.4245    0.4783   -2.4041 C.ar      1 <1>        -0.0899
     15 C14         5.7072    1.6233   -2.6747 C.ar      1 <1>        -0.0639
     16 C15         5.0057    2.2509   -1.6468 C.ar      1 <1>         0.0558
     17 C16         4.2236    3.4736   -1.8772 C.2       1 <1>         0.1531
     18 O1          4.1613    3.9847   -2.9803 O.2       1 <1>        -0.4532
     19 N2          3.5711    4.0077   -0.8185 N.am      1 <1>        -0.2358
     20 C17         2.8066    5.1699   -0.9851 C.ar      1 <1>        -0.0119
     21 C18         3.4006    6.4177   -0.8485 C.ar      1 <1>        -0.0528
     22 C19         2.6479    7.5626   -1.0185 C.ar      1 <1>        -0.0529
     23 C20         1.2957    7.4666   -1.3143 C.ar      1 <1>        -0.0318
     24 C21         0.7003    6.2202   -1.4452 C.ar      1 <1>        -0.0533
     25 C22         1.4531    5.0746   -1.2812 C.ar      1 <1>        -0.0533
     26 O2          0.5538    8.5943   -1.4755 O.3       1 <1>        -0.4350
     27 H1          0.4794    5.7739    6.8509 H         1 <1>         0.1194
     28 H2          1.9436    3.8381    7.2504 H         1 <1>         0.1186
     29 H3          3.1526    2.7970    5.3793 H         1 <1>         0.1287
     30 H4          1.4205    5.6644    2.6945 H         1 <1>         0.1227
     31 H5          0.2138    6.6816    4.5802 H         1 <1>         0.1171
     32 H6          3.7288    2.6895    2.9561 H         1 <1>         0.1632
     33 H7          2.2982    4.8842    1.3654 H         1 <1>         0.1484
     34 H8          5.8051    0.1229    0.8952 H         1 <1>         0.1436
     35 H9          7.0204   -0.9499   -0.9278 H         1 <1>         0.1367
     36 H10         6.9701   -0.0115   -3.1971 H         1 <1>         0.1233
     37 H11         5.6884    2.0306   -3.6748 H         1 <1>         0.1455
     38 H12         4.4520    6.4926   -0.6135 H         1 <1>         0.1416
     39 H13         3.1107    8.5330   -0.9167 H         1 <1>         0.1373
     40 H14        -0.3523    6.1463   -1.6752 H         1 <1>         0.1371
     41 H15         0.9894    4.1045   -1.3827 H         1 <1>         0.1413
     42 H16         0.1507    8.9199   -0.6591 H         1 <1>         0.3607
@<TRIPOS>BOND
     1    1    6 ar
     2    1    2 ar
     3    1   27 1
     4    2    3 ar
     5    2   28 1
     6    3    4 ar
     7    3   29 1
     8    4    5 ar
     9    4    7 1
    10    5    6 ar
    11    5   30 1
    12    6   31 1
    13    7    8 2
    14    7   32 1
    15    8    9 1
    16    8   33 1
    17    9   19 1
    18    9   10 2
    19   10   11 1
    20   11   16 ar
    21   11   12 ar
    22   12   13 ar
    23   12   34 1
    24   13   14 ar
    25   13   35 1
    26   14   15 ar
    27   14   36 1
    28   15   16 ar
    29   15   37 1
    30   16   17 1
    31   17   18 2
    32   17   19 am
    33   19   20 1
    34   20   25 ar
    35   20   21 ar
    36   21   22 ar
    37   21   38 1
    38   22   23 ar
    39   22   39 1
    40   23   24 ar
    41   23   26 1
    42   24   25 ar
    43   24   40 1
    44   25   41 1
    45   26   42 1
@<TRIPOS>Similarity
1.0392
@<TRIPOS>ShapeSim
0.6014
@<TRIPOS>PharmSim
0.4378
# END
# Name:		ZINC03902181
# Created and modified by SHAFTS on Mon Jun 23 14:53:19 2014

# 

@<TRIPOS>MOLECULE
ZINC03902181
   42    45     0
SMALL
USER_CHARGE


@<TRIPOS>ATOM
      1 C1          1.0082    5.3205    6.0255 C.ar      1 <1>        -0.1051
      2 C2          1.8319    4.2313    6.2507 C.ar      1 <1>        -0.1013
      3 C3          2.5104    3.6470    5.2021 C.ar      1 <1>        -0.0916
      4 C4          2.3642    4.1574    3.9086 C.ar      1 <1>        -0.0777
      5 C5          1.5346    5.2615    3.6900 C.ar      1 <1>        -0.0944
      6 C6          0.8585    5.8316    4.7480 C.ar      1 <1>        -0.1030
      7 C7          3.0851    3.5394    2.7834 C.2       1 <1>        -0.0547
      8 C8          2.9418    4.0342    1.5380 C.2       1 <1>         0.0021
      9 C9          3.6588    3.4195    0.4190 C.2       1 <1>         0.0596
     10 N1          4.3526    2.3275    0.6426 N.2       1 <1>        -0.3520
     11 C10         5.0353    1.7105   -0.3399 C.ar      1 <1>        -0.0073
     12 C11         5.7729    0.5468   -0.0976 C.ar      1 <1>        -0.0510
     13 C12         6.4529   -0.0515   -1.1202 C.ar      1 <1>        -0.0840
     14 C13         6.4245    0.4783   -2.4041 C.ar      1 <1>        -0.0899
     15 C14         5.7072    1.6233   -2.6747 C.ar      1 <1>        -0.0639
     16 C15         5.0057    2.2509   -1.6468 C.ar      1 <1>         0.0558
     17 C16         4.2236    3.4736   -1.8772 C.2       1 <1>         0.1531
     18 O1          4.1613    3.9847   -2.9803 O.2       1 <1>        -0.4532
     19 N2          3.5711    4.0077   -0.8185 N.am      1 <1>        -0.2358
     20 C17         2.8066    5.1699   -0.9851 C.ar      1 <1>        -0.0119
     21 C18         3.4006    6.4177   -0.8485 C.ar      1 <1>        -0.0528
     22 C19         2.6479    7.5626   -1.0185 C.ar      1 <1>        -0.0529
     23 C20         1.2957    7.4666   -1.3143 C.ar      1 <1>        -0.0318
     24 C21         0.7003    6.2202   -1.4452 C.ar      1 <1>        -0.0533
     25 C22         1.4531    5.0746   -1.2812 C.ar      1 <1>        -0.0533
     26 O2          0.5538    8.5943   -1.4755 O.3       1 <1>        -0.4350
     27 H1          0.4794    5.7739    6.8509 H         1 <1>         0.1194
     28 H2          1.9436    3.8381    7.2504 H         1 <1>         0.1186
     29 H3          3.1526    2.7970    5.3793 H         1 <1>         0.1287
     30 H4          1.4205    5.6644    2.6945 H         1 <1>         0.1227
     31 H5          0.2138    6.6816    4.5802 H         1 <1>         0.1171
     32 H6          3.7288    2.6895    2.9561 H         1 <1>         0.1632
     33 H7          2.2982    4.8842    1.3654 H         1 <1>         0.1484
     34 H8          5.8051    0.1229    0.8952 H         1 <1>         0.1436
     35 H9          7.0204   -0.9499   -0.9278 H         1 <1>         0.1367
     36 H10         6.9701   -0.0115   -3.1971 H         1 <1>         0.1233
     37 H11         5.6884    2.0306   -3.6748 H         1 <1>         0.1455
     38 H12         4.4520    6.4926   -0.6135 H         1 <1>         0.1416
     39 H13         3.1107    8.5330   -0.9167 H         1 <1>         0.1373
     40 H14        -0.3523    6.1463   -1.6752 H         1 <1>         0.1371
     41 H15         0.9894    4.1045   -1.3827 H         1 <1>         0.1413
     42 H16         0.1507    8.9199   -0.6591 H         1 <1>         0.3607
@<TRIPOS>BOND
     1    1    6 ar
     2    1    2 ar
     3    1   27 1
     4    2    3 ar
     5    2   28 1
     6    3    4 ar
     7    3   29 1
     8    4    5 ar
     9    4    7 1
    10    5    6 ar
    11    5   30 1
    12    6   31 1
    13    7    8 2
    14    7   32 1
    15    8    9 1
    16    8   33 1
    17    9   19 1
    18    9   10 2
    19   10   11 1
    20   11   16 ar
    21   11   12 ar
    22   12   13 ar
    23   12   34 1
    24   13   14 ar
    25   13   35 1
    26   14   15 ar
    27   14   36 1
    28   15   16 ar
    29   15   37 1
    30   16   17 1
    31   17   18 2
    32   17   19 am
    33   19   20 1
    34   20   25 ar
    35   20   21 ar
    36   21   22 ar
    37   21   38 1
    38   22   23 ar
    39   22   39 1
    40   23   24 ar
    41   23   26 1
    42   24   25 ar
    43   24   40 1
    44   25   41 1
    45   26   42 1
@<TRIPOS>Similarity
1.0392
@<TRIPOS>ShapeSim
0.6014
@<TRIPOS>PharmSim
0.4378
# END
# Name:		ZINC03902181
# Created and modified by SHAFTS on Mon Jun 23 14:53:19 2014

# 

@<TRIPOS>MOLECULE
ZINC03902181
   42    45     0
SMALL
USER_CHARGE


@<TRIPOS>ATOM
      1 C1          1.0082    5.3205    6.0255 C.ar      1 <1>        -0.1051
      2 C2          1.8319    4.2313    6.2507 C.ar      1 <1>        -0.1013
      3 C3          2.5104    3.6470    5.2021 C.ar      1 <1>        -0.0916
      4 C4          2.3642    4.1574    3.9086 C.ar      1 <1>        -0.0777
      5 C5          1.5346    5.2615    3.6900 C.ar      1 <1>        -0.0944
      6 C6          0.8585    5.8316    4.7480 C.ar      1 <1>        -0.1030
      7 C7          3.0851    3.5394    2.7834 C.2       1 <1>        -0.0547
      8 C8          2.9418    4.0342    1.5380 C.2       1 <1>         0.0021
      9 C9          3.6588    3.4195    0.4190 C.2       1 <1>         0.0596
     10 N1          4.3526    2.3275    0.6426 N.2       1 <1>        -0.3520
     11 C10         5.0353    1.7105   -0.3399 C.ar      1 <1>        -0.0073
     12 C11         5.7729    0.5468   -0.0976 C.ar      1 <1>        -0.0510
     13 C12         6.4529   -0.0515   -1.1202 C.ar      1 <1>        -0.0840
     14 C13         6.4245    0.4783   -2.4041 C.ar      1 <1>        -0.0899
     15 C14         5.7072    1.6233   -2.6747 C.ar      1 <1>        -0.0639
     16 C15         5.0057    2.2509   -1.6468 C.ar      1 <1>         0.0558
     17 C16         4.2236    3.4736   -1.8772 C.2       1 <1>         0.1531
     18 O1          4.1613    3.9847   -2.9803 O.2       1 <1>        -0.4532
     19 N2          3.5711    4.0077   -0.8185 N.am      1 <1>        -0.2358
     20 C17         2.8066    5.1699   -0.9851 C.ar      1 <1>        -0.0119
     21 C18         3.4006    6.4177   -0.8485 C.ar      1 <1>        -0.0528
     22 C19         2.6479    7.5626   -1.0185 C.ar      1 <1>        -0.0529
     23 C20         1.2957    7.4666   -1.3143 C.ar      1 <1>        -0.0318
     24 C21         0.7003    6.2202   -1.4452 C.ar      1 <1>        -0.0533
     25 C22         1.4531    5.0746   -1.2812 C.ar      1 <1>        -0.0533
     26 O2          0.5538    8.5943   -1.4755 O.3       1 <1>        -0.4350
     27 H1          0.4794    5.7739    6.8509 H         1 <1>         0.1194
     28 H2          1.9436    3.8381    7.2504 H         1 <1>         0.1186
     29 H3          3.1526    2.7970    5.3793 H         1 <1>         0.1287
     30 H4          1.4205    5.6644    2.6945 H         1 <1>         0.1227
     31 H5          0.2138    6.6816    4.5802 H         1 <1>         0.1171
     32 H6          3.7288    2.6895    2.9561 H         1 <1>         0.1632
     33 H7          2.2982    4.8842    1.3654 H         1 <1>         0.1484
     34 H8          5.8051    0.1229    0.8952 H         1 <1>         0.1436
     35 H9          7.0204   -0.9499   -0.9278 H         1 <1>         0.1367
     36 H10         6.9701   -0.0115   -3.1971 H         1 <1>         0.1233
     37 H11         5.6884    2.0306   -3.6748 H         1 <1>         0.1455
     38 H12         4.4520    6.4926   -0.6135 H         1 <1>         0.1416
     39 H13         3.1107    8.5330   -0.9167 H         1 <1>         0.1373
     40 H14        -0.3523    6.1463   -1.6752 H         1 <1>         0.1371
     41 H15         0.9894    4.1045   -1.3827 H         1 <1>         0.1413
     42 H16         0.1507    8.9199   -0.6591 H         1 <1>         0.3607
@<TRIPOS>BOND
     1    1    6 ar
     2    1    2 ar
     3    1   27 1
     4    2    3 ar
     5    2   28 1
     6    3    4 ar
     7    3   29 1
     8    4    5 ar
     9    4    7 1
    10    5    6 ar
    11    5   30 1
    12    6   31 1
    13    7    8 2
    14    7   32 1
    15    8    9 1
    16    8   33 1
    17    9   19 1
    18    9   10 2
    19   10   11 1
    20   11   16 ar
    21   11   12 ar
    22   12   13 ar
    23   12   34 1
    24   13   14 ar
    25   13   35 1
    26   14   15 ar
    27   14   36 1
    28   15   16 ar
    29   15   37 1
    30   16   17 1
    31   17   18 2
    32   17   19 am
    33   19   20 1
    34   20   25 ar
    35   20   21 ar
    36   21   22 ar
    37   21   38 1
    38   22   23 ar
    39   22   39 1
    40   23   24 ar
    41   23   26 1
    42   24   25 ar
    43   24   40 1
    44   25   41 1
    45   26   42 1
@<TRIPOS>Similarity
1.0392
@<TRIPOS>ShapeSim
0.6014
@<TRIPOS>PharmSim
0.4378
# END
# Name:		ZINC03902181
# Created and modified by SHAFTS on Mon Jun 23 14:53:19 2014

# 

@<TRIPOS>MOLECULE
ZINC03902181
   42    45     0
SMALL
USER_CHARGE


@<TRIPOS>ATOM
      1 C1          1.0082    5.3205    6.0255 C.ar      1 <1>        -0.1051
      2 C2          1.8319    4.2313    6.2507 C.ar      1 <1>        -0.1013
      3 C3          2.5104    3.6470    5.2021 C.ar      1 <1>        -0.0916
      4 C4          2.3642    4.1574    3.9086 C.ar      1 <1>        -0.0777
      5 C5          1.5346    5.2615    3.6900 C.ar      1 <1>        -0.0944
      6 C6          0.8585    5.8316    4.7480 C.ar      1 <1>        -0.1030
      7 C7          3.0851    3.5394    2.7834 C.2       1 <1>        -0.0547
      8 C8          2.9418    4.0342    1.5380 C.2       1 <1>         0.0021
      9 C9          3.6588    3.4195    0.4190 C.2       1 <1>         0.0596
     10 N1          4.3526    2.3275    0.6426 N.2       1 <1>        -0.3520
     11 C10         5.0353    1.7105   -0.3399 C.ar      1 <1>        -0.0073
     12 C11         5.7729    0.5468   -0.0976 C.ar      1 <1>        -0.0510
     13 C12         6.4529   -0.0515   -1.1202 C.ar      1 <1>        -0.0840
     14 C13         6.4245    0.4783   -2.4041 C.ar      1 <1>        -0.0899
     15 C14         5.7072    1.6233   -2.6747 C.ar      1 <1>        -0.0639
     16 C15         5.0057    2.2509   -1.6468 C.ar      1 <1>         0.0558
     17 C16         4.2236    3.4736   -1.8772 C.2       1 <1>         0.1531
     18 O1          4.1613    3.9847   -2.9803 O.2       1 <1>        -0.4532
     19 N2          3.5711    4.0077   -0.8185 N.am      1 <1>        -0.2358
     20 C17         2.8066    5.1699   -0.9851 C.ar      1 <1>        -0.0119
     21 C18         3.4006    6.4177   -0.8485 C.ar      1 <1>        -0.0528
     22 C19         2.6479    7.5626   -1.0185 C.ar      1 <1>        -0.0529
     23 C20         1.2957    7.4666   -1.3143 C.ar      1 <1>        -0.0318
     24 C21         0.7003    6.2202   -1.4452 C.ar      1 <1>        -0.0533
     25 C22         1.4531    5.0746   -1.2812 C.ar      1 <1>        -0.0533
     26 O2          0.5538    8.5943   -1.4755 O.3       1 <1>        -0.4350
     27 H1          0.4794    5.7739    6.8509 H         1 <1>         0.1194
     28 H2          1.9436    3.8381    7.2504 H         1 <1>         0.1186
     29 H3          3.1526    2.7970    5.3793 H         1 <1>         0.1287
     30 H4          1.4205    5.6644    2.6945 H         1 <1>         0.1227
     31 H5          0.2138    6.6816    4.5802 H         1 <1>         0.1171
     32 H6          3.7288    2.6895    2.9561 H         1 <1>         0.1632
     33 H7          2.2982    4.8842    1.3654 H         1 <1>         0.1484
     34 H8          5.8051    0.1229    0.8952 H         1 <1>         0.1436
     35 H9          7.0204   -0.9499   -0.9278 H         1 <1>         0.1367
     36 H10         6.9701   -0.0115   -3.1971 H         1 <1>         0.1233
     37 H11         5.6884    2.0306   -3.6748 H         1 <1>         0.1455
     38 H12         4.4520    6.4926   -0.6135 H         1 <1>         0.1416
     39 H13         3.1107    8.5330   -0.9167 H         1 <1>         0.1373
     40 H14        -0.3523    6.1463   -1.6752 H         1 <1>         0.1371
     41 H15         0.9894    4.1045   -1.3827 H         1 <1>         0.1413
     42 H16         0.1507    8.9199   -0.6591 H         1 <1>         0.3607
@<TRIPOS>BOND
     1    1    6 ar
     2    1    2 ar
     3    1   27 1
     4    2    3 ar
     5    2   28 1
     6    3    4 ar
     7    3   29 1
     8    4    5 ar
     9    4    7 1
    10    5    6 ar
    11    5   30 1
    12    6   31 1
    13    7    8 2
    14    7   32 1
    15    8    9 1
    16    8   33 1
    17    9   19 1
    18    9   10 2
    19   10   11 1
    20   11   16 ar
    21   11   12 ar
    22   12   13 ar
    23   12   34 1
    24   13   14 ar
    25   13   35 1
    26   14   15 ar
    27   14   36 1
    28   15   16 ar
    29   15   37 1
    30   16   17 1
    31   17   18 2
    32   17   19 am
    33   19   20 1
    34   20   25 ar
    35   20   21 ar
    36   21   22 ar
    37   21   38 1
    38   22   23 ar
    39   22   39 1
    40   23   24 ar
    41   23   26 1
    42   24   25 ar
    43   24   40 1
    44   25   41 1
    45   26   42 1
@<TRIPOS>Similarity
1.0392
@<TRIPOS>ShapeSim
0.6014
@<TRIPOS>PharmSim
0.4378
# END
# Name:		ZINC04597381
# Created and modified by SHAFTS on Mon Jun 23 14:53:19 2014

# 

@<TRIPOS>MOLECULE
ZINC04597381
   43    46     0
SMALL
USER_CHARGE


@<TRIPOS>ATOM
      1 C1         -0.9416    8.9376   -2.2093 C.3       1 <1>        -0.0147
      2 S1          0.6557    8.6763   -3.0286 S.3       1 <1>        -0.2184
      3 C2          1.4209    7.4071   -2.0756 C.ar      1 <1>        -0.0730
      4 C3          2.6853    6.9445   -2.4234 C.ar      1 <1>        -0.0785
      5 C4          3.2862    5.9520   -1.6791 C.ar      1 <1>        -0.0618
      6 C5          2.6247    5.4114   -0.5765 C.ar      1 <1>        -0.0225
      7 C6          1.3539    5.8726   -0.2331 C.ar      1 <1>        -0.0715
      8 C7          0.7594    6.8693   -0.9771 C.ar      1 <1>        -0.0882
      9 C8          3.2686    4.3442    0.2254 C.2       1 <1>         0.0319
     10 C9          3.1553    4.1756    1.5944 C.2       1 <1>         0.0193
     11 N1          3.9000    3.0846    1.9185 N.pl3     1 <1>        -0.2978
     12 C10         4.1675    2.4407    3.1000 C.2       1 <1>        -0.0134
     13 C11         4.9646    1.3536    3.1026 C.2       1 <1>        -0.0214
     14 N2          5.5044    0.8856    1.9725 N.2       1 <1>        -0.3737
     15 C12         5.2815    1.4629    0.8160 C.2       1 <1>         0.0491
     16 C13         4.4560    2.6028    0.7508 C.2       1 <1>         0.0666
     17 N3          4.0639    3.3727   -0.2489 N.2       1 <1>        -0.3461
     18 N4          2.4200    4.9702    2.4715 N.pl3     1 <1>        -0.3802
     19 C14         2.6889    4.6009    3.8677 C.3       1 <1>        -0.0477
     20 C15         1.7292    3.4775    4.3112 C.3       1 <1>        -0.0608
     21 C16         1.3999    3.8206    5.7862 C.3       1 <1>        -0.0714
     22 C17         1.3039    5.3665    5.7650 C.3       1 <1>        -0.0681
     23 C18         2.4190    5.8014    4.7917 C.3       1 <1>        -0.0548
     24 H1         -0.7744    9.2438   -1.1767 H         1 <1>         0.0677
     25 H2         -1.4958    9.7160   -2.7338 H         1 <1>         0.0859
     26 H3         -1.5141    8.0103   -2.2252 H         1 <1>         0.0675
     27 H4          3.1971    7.3635   -3.2772 H         1 <1>         0.1315
     28 H5          4.2682    5.5931   -1.9495 H         1 <1>         0.1431
     29 H6          0.8379    5.4523    0.6176 H         1 <1>         0.1278
     30 H7         -0.2227    7.2299   -0.7090 H         1 <1>         0.1180
     31 H8          3.7412    2.8029    4.0238 H         1 <1>         0.2008
     32 H9          5.1715    0.8510    4.0359 H         1 <1>         0.2064
     33 H10         5.7295    1.0660   -0.0831 H         1 <1>         0.2693
     34 H11         1.4334    4.9171    2.2669 H         1 <1>         0.2862
     35 H12         3.7227    4.2727    3.9743 H         1 <1>         0.0977
     36 H13         0.8230    3.4886    3.7057 H         1 <1>         0.0461
     37 H14         2.2214    2.5072    4.2453 H         1 <1>         0.0464
     38 H15         2.2023    3.4924    6.4469 H         1 <1>         0.0457
     39 H16         0.4496    3.3786    6.0858 H         1 <1>         0.0464
     40 H17         1.4855    5.7735    6.7596 H         1 <1>         0.0467
     41 H18         0.3291    5.6831    5.3943 H         1 <1>         0.0444
     42 H19         3.3216    6.0551    5.3475 H         1 <1>         0.0562
     43 H20         2.0894    6.6582    4.2041 H         1 <1>         0.0633
@<TRIPOS>BOND
     1    1    2 1
     2    1   24 1
     3    1   25 1
     4    1   26 1
     5    2    3 1
     6    3    8 ar
     7    3    4 ar
     8    4    5 ar
     9    4   27 1
    10    5    6 ar
    11    5   28 1
    12    6    7 ar
    13    6    9 1
    14    7    8 ar
    15    7   29 1
    16    8   30 1
    17    9   17 1
    18    9   10 2
    19   10   11 1
    20   10   18 1
    21   11   16 1
    22   11   12 1
    23   12   13 2
    24   12   31 1
    25   13   14 1
    26   13   32 1
    27   14   15 2
    28   15   16 1
    29   15   33 1
    30   16   17 2
    31   18   19 1
    32   18   34 1
    33   19   23 1
    34   19   20 1
    35   19   35 1
    36   20   21 1
    37   20   36 1
    38   20   37 1
    39   21   22 1
    40   21   38 1
    41   21   39 1
    42   22   23 1
    43   22   40 1
    44   22   41 1
    45   23   42 1
    46   23   43 1
@<TRIPOS>Similarity
1.0245
@<TRIPOS>ShapeSim
0.6280
@<TRIPOS>PharmSim
0.3965
# END
# Name:		ZINC04597381
# Created and modified by SHAFTS on Mon Jun 23 14:53:19 2014

# 

@<TRIPOS>MOLECULE
ZINC04597381
   43    46     0
SMALL
USER_CHARGE


@<TRIPOS>ATOM
      1 C1         -0.9416    8.9376   -2.2093 C.3       1 <1>        -0.0147
      2 S1          0.6557    8.6763   -3.0286 S.3       1 <1>        -0.2184
      3 C2          1.4209    7.4071   -2.0756 C.ar      1 <1>        -0.0730
      4 C3          2.6853    6.9445   -2.4234 C.ar      1 <1>        -0.0785
      5 C4          3.2862    5.9520   -1.6791 C.ar      1 <1>        -0.0618
      6 C5          2.6247    5.4114   -0.5765 C.ar      1 <1>        -0.0225
      7 C6          1.3539    5.8726   -0.2331 C.ar      1 <1>        -0.0715
      8 C7          0.7594    6.8693   -0.9771 C.ar      1 <1>        -0.0882
      9 C8          3.2686    4.3442    0.2254 C.2       1 <1>         0.0319
     10 C9          3.1553    4.1756    1.5944 C.2       1 <1>         0.0193
     11 N1          3.9000    3.0846    1.9185 N.pl3     1 <1>        -0.2978
     12 C10         4.1675    2.4407    3.1000 C.2       1 <1>        -0.0134
     13 C11         4.9646    1.3536    3.1026 C.2       1 <1>        -0.0214
     14 N2          5.5044    0.8856    1.9725 N.2       1 <1>        -0.3737
     15 C12         5.2815    1.4629    0.8160 C.2       1 <1>         0.0491
     16 C13         4.4560    2.6028    0.7508 C.2       1 <1>         0.0666
     17 N3          4.0639    3.3727   -0.2489 N.2       1 <1>        -0.3461
     18 N4          2.4200    4.9702    2.4715 N.pl3     1 <1>        -0.3802
     19 C14         2.6889    4.6009    3.8677 C.3       1 <1>        -0.0477
     20 C15         1.7292    3.4775    4.3112 C.3       1 <1>        -0.0608
     21 C16         1.3999    3.8206    5.7862 C.3       1 <1>        -0.0714
     22 C17         1.3039    5.3665    5.7650 C.3       1 <1>        -0.0681
     23 C18         2.4190    5.8014    4.7917 C.3       1 <1>        -0.0548
     24 H1         -0.7744    9.2438   -1.1767 H         1 <1>         0.0677
     25 H2         -1.4958    9.7160   -2.7338 H         1 <1>         0.0859
     26 H3         -1.5141    8.0103   -2.2252 H         1 <1>         0.0675
     27 H4          3.1971    7.3635   -3.2772 H         1 <1>         0.1315
     28 H5          4.2682    5.5931   -1.9495 H         1 <1>         0.1431
     29 H6          0.8379    5.4523    0.6176 H         1 <1>         0.1278
     30 H7         -0.2227    7.2299   -0.7090 H         1 <1>         0.1180
     31 H8          3.7412    2.8029    4.0238 H         1 <1>         0.2008
     32 H9          5.1715    0.8510    4.0359 H         1 <1>         0.2064
     33 H10         5.7295    1.0660   -0.0831 H         1 <1>         0.2693
     34 H11         1.4334    4.9171    2.2669 H         1 <1>         0.2862
     35 H12         3.7227    4.2727    3.9743 H         1 <1>         0.0977
     36 H13         0.8230    3.4886    3.7057 H         1 <1>         0.0461
     37 H14         2.2214    2.5072    4.2453 H         1 <1>         0.0464
     38 H15         2.2023    3.4924    6.4469 H         1 <1>         0.0457
     39 H16         0.4496    3.3786    6.0858 H         1 <1>         0.0464
     40 H17         1.4855    5.7735    6.7596 H         1 <1>         0.0467
     41 H18         0.3291    5.6831    5.3943 H         1 <1>         0.0444
     42 H19         3.3216    6.0551    5.3475 H         1 <1>         0.0562
     43 H20         2.0894    6.6582    4.2041 H         1 <1>         0.0633
@<TRIPOS>BOND
     1    1    2 1
     2    1   24 1
     3    1   25 1
     4    1   26 1
     5    2    3 1
     6    3    8 ar
     7    3    4 ar
     8    4    5 ar
     9    4   27 1
    10    5    6 ar
    11    5   28 1
    12    6    7 ar
    13    6    9 1
    14    7    8 ar
    15    7   29 1
    16    8   30 1
    17    9   17 1
    18    9   10 2
    19   10   11 1
    20   10   18 1
    21   11   16 1
    22   11   12 1
    23   12   13 2
    24   12   31 1
    25   13   14 1
    26   13   32 1
    27   14   15 2
    28   15   16 1
    29   15   33 1
    30   16   17 2
    31   18   19 1
    32   18   34 1
    33   19   23 1
    34   19   20 1
    35   19   35 1
    36   20   21 1
    37   20   36 1
    38   20   37 1
    39   21   22 1
    40   21   38 1
    41   21   39 1
    42   22   23 1
    43   22   40 1
    44   22   41 1
    45   23   42 1
    46   23   43 1
@<TRIPOS>Similarity
1.0245
@<TRIPOS>ShapeSim
0.6280
@<TRIPOS>PharmSim
0.3965
# END
# Name:		ZINC04597381
# Created and modified by SHAFTS on Mon Jun 23 14:53:19 2014

# 

@<TRIPOS>MOLECULE
ZINC04597381
   43    46     0
SMALL
USER_CHARGE


@<TRIPOS>ATOM
      1 C1         -0.9416    8.9376   -2.2093 C.3       1 <1>        -0.0147
      2 S1          0.6557    8.6763   -3.0286 S.3       1 <1>        -0.2184
      3 C2          1.4209    7.4071   -2.0756 C.ar      1 <1>        -0.0730
      4 C3          2.6853    6.9445   -2.4234 C.ar      1 <1>        -0.0785
      5 C4          3.2862    5.9520   -1.6791 C.ar      1 <1>        -0.0618
      6 C5          2.6247    5.4114   -0.5765 C.ar      1 <1>        -0.0225
      7 C6          1.3539    5.8726   -0.2331 C.ar      1 <1>        -0.0715
      8 C7          0.7594    6.8693   -0.9771 C.ar      1 <1>        -0.0882
      9 C8          3.2686    4.3442    0.2254 C.2       1 <1>         0.0319
     10 C9          3.1553    4.1756    1.5944 C.2       1 <1>         0.0193
     11 N1          3.9000    3.0846    1.9185 N.pl3     1 <1>        -0.2978
     12 C10         4.1675    2.4407    3.1000 C.2       1 <1>        -0.0134
     13 C11         4.9646    1.3536    3.1026 C.2       1 <1>        -0.0214
     14 N2          5.5044    0.8856    1.9725 N.2       1 <1>        -0.3737
     15 C12         5.2815    1.4629    0.8160 C.2       1 <1>         0.0491
     16 C13         4.4560    2.6028    0.7508 C.2       1 <1>         0.0666
     17 N3          4.0639    3.3727   -0.2489 N.2       1 <1>        -0.3461
     18 N4          2.4200    4.9702    2.4715 N.pl3     1 <1>        -0.3802
     19 C14         2.6889    4.6009    3.8677 C.3       1 <1>        -0.0477
     20 C15         1.7292    3.4775    4.3112 C.3       1 <1>        -0.0608
     21 C16         1.3999    3.8206    5.7862 C.3       1 <1>        -0.0714
     22 C17         1.3039    5.3665    5.7650 C.3       1 <1>        -0.0681
     23 C18         2.4190    5.8014    4.7917 C.3       1 <1>        -0.0548
     24 H1         -0.7744    9.2438   -1.1767 H         1 <1>         0.0677
     25 H2         -1.4958    9.7160   -2.7338 H         1 <1>         0.0859
     26 H3         -1.5141    8.0103   -2.2252 H         1 <1>         0.0675
     27 H4          3.1971    7.3635   -3.2772 H         1 <1>         0.1315
     28 H5          4.2682    5.5931   -1.9495 H         1 <1>         0.1431
     29 H6          0.8379    5.4523    0.6176 H         1 <1>         0.1278
     30 H7         -0.2227    7.2299   -0.7090 H         1 <1>         0.1180
     31 H8          3.7412    2.8029    4.0238 H         1 <1>         0.2008
     32 H9          5.1715    0.8510    4.0359 H         1 <1>         0.2064
     33 H10         5.7295    1.0660   -0.0831 H         1 <1>         0.2693
     34 H11         1.4334    4.9171    2.2669 H         1 <1>         0.2862
     35 H12         3.7227    4.2727    3.9743 H         1 <1>         0.0977
     36 H13         0.8230    3.4886    3.7057 H         1 <1>         0.0461
     37 H14         2.2214    2.5072    4.2453 H         1 <1>         0.0464
     38 H15         2.2023    3.4924    6.4469 H         1 <1>         0.0457
     39 H16         0.4496    3.3786    6.0858 H         1 <1>         0.0464
     40 H17         1.4855    5.7735    6.7596 H         1 <1>         0.0467
     41 H18         0.3291    5.6831    5.3943 H         1 <1>         0.0444
     42 H19         3.3216    6.0551    5.3475 H         1 <1>         0.0562
     43 H20         2.0894    6.6582    4.2041 H         1 <1>         0.0633
@<TRIPOS>BOND
     1    1    2 1
     2    1   24 1
     3    1   25 1
     4    1   26 1
     5    2    3 1
     6    3    8 ar
     7    3    4 ar
     8    4    5 ar
     9    4   27 1
    10    5    6 ar
    11    5   28 1
    12    6    7 ar
    13    6    9 1
    14    7    8 ar
    15    7   29 1
    16    8   30 1
    17    9   17 1
    18    9   10 2
    19   10   11 1
    20   10   18 1
    21   11   16 1
    22   11   12 1
    23   12   13 2
    24   12   31 1
    25   13   14 1
    26   13   32 1
    27   14   15 2
    28   15   16 1
    29   15   33 1
    30   16   17 2
    31   18   19 1
    32   18   34 1
    33   19   23 1
    34   19   20 1
    35   19   35 1
    36   20   21 1
    37   20   36 1
    38   20   37 1
    39   21   22 1
    40   21   38 1
    41   21   39 1
    42   22   23 1
    43   22   40 1
    44   22   41 1
    45   23   42 1
    46   23   43 1
@<TRIPOS>Similarity
1.0245
@<TRIPOS>ShapeSim
0.6280
@<TRIPOS>PharmSim
0.3965
# END
# Name:		ZINC04597381
# Created and modified by SHAFTS on Mon Jun 23 14:53:19 2014

# 

@<TRIPOS>MOLECULE
ZINC04597381
   43    46     0
SMALL
USER_CHARGE


@<TRIPOS>ATOM
      1 C1         -0.9416    8.9376   -2.2093 C.3       1 <1>        -0.0147
      2 S1          0.6557    8.6763   -3.0286 S.3       1 <1>        -0.2184
      3 C2          1.4209    7.4071   -2.0756 C.ar      1 <1>        -0.0730
      4 C3          2.6853    6.9445   -2.4234 C.ar      1 <1>        -0.0785
      5 C4          3.2862    5.9520   -1.6791 C.ar      1 <1>        -0.0618
      6 C5          2.6247    5.4114   -0.5765 C.ar      1 <1>        -0.0225
      7 C6          1.3539    5.8726   -0.2331 C.ar      1 <1>        -0.0715
      8 C7          0.7594    6.8693   -0.9771 C.ar      1 <1>        -0.0882
      9 C8          3.2686    4.3442    0.2254 C.2       1 <1>         0.0319
     10 C9          3.1553    4.1756    1.5944 C.2       1 <1>         0.0193
     11 N1          3.9000    3.0846    1.9185 N.pl3     1 <1>        -0.2978
     12 C10         4.1675    2.4407    3.1000 C.2       1 <1>        -0.0134
     13 C11         4.9646    1.3536    3.1026 C.2       1 <1>        -0.0214
     14 N2          5.5044    0.8856    1.9725 N.2       1 <1>        -0.3737
     15 C12         5.2815    1.4629    0.8160 C.2       1 <1>         0.0491
     16 C13         4.4560    2.6028    0.7508 C.2       1 <1>         0.0666
     17 N3          4.0639    3.3727   -0.2489 N.2       1 <1>        -0.3461
     18 N4          2.4200    4.9702    2.4715 N.pl3     1 <1>        -0.3802
     19 C14         2.6889    4.6009    3.8677 C.3       1 <1>        -0.0477
     20 C15         1.7292    3.4775    4.3112 C.3       1 <1>        -0.0608
     21 C16         1.3999    3.8206    5.7862 C.3       1 <1>        -0.0714
     22 C17         1.3039    5.3665    5.7650 C.3       1 <1>        -0.0681
     23 C18         2.4190    5.8014    4.7917 C.3       1 <1>        -0.0548
     24 H1         -0.7744    9.2438   -1.1767 H         1 <1>         0.0677
     25 H2         -1.4958    9.7160   -2.7338 H         1 <1>         0.0859
     26 H3         -1.5141    8.0103   -2.2252 H         1 <1>         0.0675
     27 H4          3.1971    7.3635   -3.2772 H         1 <1>         0.1315
     28 H5          4.2682    5.5931   -1.9495 H         1 <1>         0.1431
     29 H6          0.8379    5.4523    0.6176 H         1 <1>         0.1278
     30 H7         -0.2227    7.2299   -0.7090 H         1 <1>         0.1180
     31 H8          3.7412    2.8029    4.0238 H         1 <1>         0.2008
     32 H9          5.1715    0.8510    4.0359 H         1 <1>         0.2064
     33 H10         5.7295    1.0660   -0.0831 H         1 <1>         0.2693
     34 H11         1.4334    4.9171    2.2669 H         1 <1>         0.2862
     35 H12         3.7227    4.2727    3.9743 H         1 <1>         0.0977
     36 H13         0.8230    3.4886    3.7057 H         1 <1>         0.0461
     37 H14         2.2214    2.5072    4.2453 H         1 <1>         0.0464
     38 H15         2.2023    3.4924    6.4469 H         1 <1>         0.0457
     39 H16         0.4496    3.3786    6.0858 H         1 <1>         0.0464
     40 H17         1.4855    5.7735    6.7596 H         1 <1>         0.0467
     41 H18         0.3291    5.6831    5.3943 H         1 <1>         0.0444
     42 H19         3.3216    6.0551    5.3475 H         1 <1>         0.0562
     43 H20         2.0894    6.6582    4.2041 H         1 <1>         0.0633
@<TRIPOS>BOND
     1    1    2 1
     2    1   24 1
     3    1   25 1
     4    1   26 1
     5    2    3 1
     6    3    8 ar
     7    3    4 ar
     8    4    5 ar
     9    4   27 1
    10    5    6 ar
    11    5   28 1
    12    6    7 ar
    13    6    9 1
    14    7    8 ar
    15    7   29 1
    16    8   30 1
    17    9   17 1
    18    9   10 2
    19   10   11 1
    20   10   18 1
    21   11   16 1
    22   11   12 1
    23   12   13 2
    24   12   31 1
    25   13   14 1
    26   13   32 1
    27   14   15 2
    28   15   16 1
    29   15   33 1
    30   16   17 2
    31   18   19 1
    32   18   34 1
    33   19   23 1
    34   19   20 1
    35   19   35 1
    36   20   21 1
    37   20   36 1
    38   20   37 1
    39   21   22 1
    40   21   38 1
    41   21   39 1
    42   22   23 1
    43   22   40 1
    44   22   41 1
    45   23   42 1
    46   23   43 1
@<TRIPOS>Similarity
1.0245
@<TRIPOS>ShapeSim
0.6280
@<TRIPOS>PharmSim
0.3965
# END
# Name:		ZINC04597381
# Created and modified by SHAFTS on Mon Jun 23 14:53:19 2014

# 

@<TRIPOS>MOLECULE
ZINC04597381
   43    46     0
SMALL
USER_CHARGE


@<TRIPOS>ATOM
      1 C1         -0.9416    8.9376   -2.2093 C.3       1 <1>        -0.0147
      2 S1          0.6557    8.6763   -3.0286 S.3       1 <1>        -0.2184
      3 C2          1.4209    7.4071   -2.0756 C.ar      1 <1>        -0.0730
      4 C3          2.6853    6.9445   -2.4234 C.ar      1 <1>        -0.0785
      5 C4          3.2862    5.9520   -1.6791 C.ar      1 <1>        -0.0618
      6 C5          2.6247    5.4114   -0.5765 C.ar      1 <1>        -0.0225
      7 C6          1.3539    5.8726   -0.2331 C.ar      1 <1>        -0.0715
      8 C7          0.7594    6.8693   -0.9771 C.ar      1 <1>        -0.0882
      9 C8          3.2686    4.3442    0.2254 C.2       1 <1>         0.0319
     10 C9          3.1553    4.1756    1.5944 C.2       1 <1>         0.0193
     11 N1          3.9000    3.0846    1.9185 N.pl3     1 <1>        -0.2978
     12 C10         4.1675    2.4407    3.1000 C.2       1 <1>        -0.0134
     13 C11         4.9646    1.3536    3.1026 C.2       1 <1>        -0.0214
     14 N2          5.5044    0.8856    1.9725 N.2       1 <1>        -0.3737
     15 C12         5.2815    1.4629    0.8160 C.2       1 <1>         0.0491
     16 C13         4.4560    2.6028    0.7508 C.2       1 <1>         0.0666
     17 N3          4.0639    3.3727   -0.2489 N.2       1 <1>        -0.3461
     18 N4          2.4200    4.9702    2.4715 N.pl3     1 <1>        -0.3802
     19 C14         2.6889    4.6009    3.8677 C.3       1 <1>        -0.0477
     20 C15         1.7292    3.4775    4.3112 C.3       1 <1>        -0.0608
     21 C16         1.3999    3.8206    5.7862 C.3       1 <1>        -0.0714
     22 C17         1.3039    5.3665    5.7650 C.3       1 <1>        -0.0681
     23 C18         2.4190    5.8014    4.7917 C.3       1 <1>        -0.0548
     24 H1         -0.7744    9.2438   -1.1767 H         1 <1>         0.0677
     25 H2         -1.4958    9.7160   -2.7338 H         1 <1>         0.0859
     26 H3         -1.5141    8.0103   -2.2252 H         1 <1>         0.0675
     27 H4          3.1971    7.3635   -3.2772 H         1 <1>         0.1315
     28 H5          4.2682    5.5931   -1.9495 H         1 <1>         0.1431
     29 H6          0.8379    5.4523    0.6176 H         1 <1>         0.1278
     30 H7         -0.2227    7.2299   -0.7090 H         1 <1>         0.1180
     31 H8          3.7412    2.8029    4.0238 H         1 <1>         0.2008
     32 H9          5.1715    0.8510    4.0359 H         1 <1>         0.2064
     33 H10         5.7295    1.0660   -0.0831 H         1 <1>         0.2693
     34 H11         1.4334    4.9171    2.2669 H         1 <1>         0.2862
     35 H12         3.7227    4.2727    3.9743 H         1 <1>         0.0977
     36 H13         0.8230    3.4886    3.7057 H         1 <1>         0.0461
     37 H14         2.2214    2.5072    4.2453 H         1 <1>         0.0464
     38 H15         2.2023    3.4924    6.4469 H         1 <1>         0.0457
     39 H16         0.4496    3.3786    6.0858 H         1 <1>         0.0464
     40 H17         1.4855    5.7735    6.7596 H         1 <1>         0.0467
     41 H18         0.3291    5.6831    5.3943 H         1 <1>         0.0444
     42 H19         3.3216    6.0551    5.3475 H         1 <1>         0.0562
     43 H20         2.0894    6.6582    4.2041 H         1 <1>         0.0633
@<TRIPOS>BOND
     1    1    2 1
     2    1   24 1
     3    1   25 1
     4    1   26 1
     5    2    3 1
     6    3    8 ar
     7    3    4 ar
     8    4    5 ar
     9    4   27 1
    10    5    6 ar
    11    5   28 1
    12    6    7 ar
    13    6    9 1
    14    7    8 ar
    15    7   29 1
    16    8   30 1
    17    9   17 1
    18    9   10 2
    19   10   11 1
    20   10   18 1
    21   11   16 1
    22   11   12 1
    23   12   13 2
    24   12   31 1
    25   13   14 1
    26   13   32 1
    27   14   15 2
    28   15   16 1
    29   15   33 1
    30   16   17 2
    31   18   19 1
    32   18   34 1
    33   19   23 1
    34   19   20 1
    35   19   35 1
    36   20   21 1
    37   20   36 1
    38   20   37 1
    39   21   22 1
    40   21   38 1
    41   21   39 1
    42   22   23 1
    43   22   40 1
    44   22   41 1
    45   23   42 1
    46   23   43 1
@<TRIPOS>Similarity
1.0245
@<TRIPOS>ShapeSim
0.6280
@<TRIPOS>PharmSim
0.3965
# END
# Name:		ZINC04597381
# Created and modified by SHAFTS on Mon Jun 23 14:53:19 2014

# 

@<TRIPOS>MOLECULE
ZINC04597381
   43    46     0
SMALL
USER_CHARGE


@<TRIPOS>ATOM
      1 C1         -0.9416    8.9376   -2.2093 C.3       1 <1>        -0.0147
      2 S1          0.6557    8.6763   -3.0286 S.3       1 <1>        -0.2184
      3 C2          1.4209    7.4071   -2.0756 C.ar      1 <1>        -0.0730
      4 C3          2.6853    6.9445   -2.4234 C.ar      1 <1>        -0.0785
      5 C4          3.2862    5.9520   -1.6791 C.ar      1 <1>        -0.0618
      6 C5          2.6247    5.4114   -0.5765 C.ar      1 <1>        -0.0225
      7 C6          1.3539    5.8726   -0.2331 C.ar      1 <1>        -0.0715
      8 C7          0.7594    6.8693   -0.9771 C.ar      1 <1>        -0.0882
      9 C8          3.2686    4.3442    0.2254 C.2       1 <1>         0.0319
     10 C9          3.1553    4.1756    1.5944 C.2       1 <1>         0.0193
     11 N1          3.9000    3.0846    1.9185 N.pl3     1 <1>        -0.2978
     12 C10         4.1675    2.4407    3.1000 C.2       1 <1>        -0.0134
     13 C11         4.9646    1.3536    3.1026 C.2       1 <1>        -0.0214
     14 N2          5.5044    0.8856    1.9725 N.2       1 <1>        -0.3737
     15 C12         5.2815    1.4629    0.8160 C.2       1 <1>         0.0491
     16 C13         4.4560    2.6028    0.7508 C.2       1 <1>         0.0666
     17 N3          4.0639    3.3727   -0.2489 N.2       1 <1>        -0.3461
     18 N4          2.4200    4.9702    2.4715 N.pl3     1 <1>        -0.3802
     19 C14         2.6889    4.6009    3.8677 C.3       1 <1>        -0.0477
     20 C15         1.7292    3.4775    4.3112 C.3       1 <1>        -0.0608
     21 C16         1.3999    3.8206    5.7862 C.3       1 <1>        -0.0714
     22 C17         1.3039    5.3665    5.7650 C.3       1 <1>        -0.0681
     23 C18         2.4190    5.8014    4.7917 C.3       1 <1>        -0.0548
     24 H1         -0.7744    9.2438   -1.1767 H         1 <1>         0.0677
     25 H2         -1.4958    9.7160   -2.7338 H         1 <1>         0.0859
     26 H3         -1.5141    8.0103   -2.2252 H         1 <1>         0.0675
     27 H4          3.1971    7.3635   -3.2772 H         1 <1>         0.1315
     28 H5          4.2682    5.5931   -1.9495 H         1 <1>         0.1431
     29 H6          0.8379    5.4523    0.6176 H         1 <1>         0.1278
     30 H7         -0.2227    7.2299   -0.7090 H         1 <1>         0.1180
     31 H8          3.7412    2.8029    4.0238 H         1 <1>         0.2008
     32 H9          5.1715    0.8510    4.0359 H         1 <1>         0.2064
     33 H10         5.7295    1.0660   -0.0831 H         1 <1>         0.2693
     34 H11         1.4334    4.9171    2.2669 H         1 <1>         0.2862
     35 H12         3.7227    4.2727    3.9743 H         1 <1>         0.0977
     36 H13         0.8230    3.4886    3.7057 H         1 <1>         0.0461
     37 H14         2.2214    2.5072    4.2453 H         1 <1>         0.0464
     38 H15         2.2023    3.4924    6.4469 H         1 <1>         0.0457
     39 H16         0.4496    3.3786    6.0858 H         1 <1>         0.0464
     40 H17         1.4855    5.7735    6.7596 H         1 <1>         0.0467
     41 H18         0.3291    5.6831    5.3943 H         1 <1>         0.0444
     42 H19         3.3216    6.0551    5.3475 H         1 <1>         0.0562
     43 H20         2.0894    6.6582    4.2041 H         1 <1>         0.0633
@<TRIPOS>BOND
     1    1    2 1
     2    1   24 1
     3    1   25 1
     4    1   26 1
     5    2    3 1
     6    3    8 ar
     7    3    4 ar
     8    4    5 ar
     9    4   27 1
    10    5    6 ar
    11    5   28 1
    12    6    7 ar
    13    6    9 1
    14    7    8 ar
    15    7   29 1
    16    8   30 1
    17    9   17 1
    18    9   10 2
    19   10   11 1
    20   10   18 1
    21   11   16 1
    22   11   12 1
    23   12   13 2
    24   12   31 1
    25   13   14 1
    26   13   32 1
    27   14   15 2
    28   15   16 1
    29   15   33 1
    30   16   17 2
    31   18   19 1
    32   18   34 1
    33   19   23 1
    34   19   20 1
    35   19   35 1
    36   20   21 1
    37   20   36 1
    38   20   37 1
    39   21   22 1
    40   21   38 1
    41   21   39 1
    42   22   23 1
    43   22   40 1
    44   22   41 1
    45   23   42 1
    46   23   43 1
@<TRIPOS>Similarity
1.0245
@<TRIPOS>ShapeSim
0.6280
@<TRIPOS>PharmSim
0.3965
# END
# Name:		ZINC04597381
# Created and modified by SHAFTS on Mon Jun 23 14:53:19 2014

# 

@<TRIPOS>MOLECULE
ZINC04597381
   43    46     0
SMALL
USER_CHARGE


@<TRIPOS>ATOM
      1 C1         -0.9416    8.9376   -2.2093 C.3       1 <1>        -0.0147
      2 S1          0.6557    8.6763   -3.0286 S.3       1 <1>        -0.2184
      3 C2          1.4209    7.4071   -2.0756 C.ar      1 <1>        -0.0730
      4 C3          2.6853    6.9445   -2.4234 C.ar      1 <1>        -0.0785
      5 C4          3.2862    5.9520   -1.6791 C.ar      1 <1>        -0.0618
      6 C5          2.6247    5.4114   -0.5765 C.ar      1 <1>        -0.0225
      7 C6          1.3539    5.8726   -0.2331 C.ar      1 <1>        -0.0715
      8 C7          0.7594    6.8693   -0.9771 C.ar      1 <1>        -0.0882
      9 C8          3.2686    4.3442    0.2254 C.2       1 <1>         0.0319
     10 C9          3.1553    4.1756    1.5944 C.2       1 <1>         0.0193
     11 N1          3.9000    3.0846    1.9185 N.pl3     1 <1>        -0.2978
     12 C10         4.1675    2.4407    3.1000 C.2       1 <1>        -0.0134
     13 C11         4.9646    1.3536    3.1026 C.2       1 <1>        -0.0214
     14 N2          5.5044    0.8856    1.9725 N.2       1 <1>        -0.3737
     15 C12         5.2815    1.4629    0.8160 C.2       1 <1>         0.0491
     16 C13         4.4560    2.6028    0.7508 C.2       1 <1>         0.0666
     17 N3          4.0639    3.3727   -0.2489 N.2       1 <1>        -0.3461
     18 N4          2.4200    4.9702    2.4715 N.pl3     1 <1>        -0.3802
     19 C14         2.6889    4.6009    3.8677 C.3       1 <1>        -0.0477
     20 C15         1.7292    3.4775    4.3112 C.3       1 <1>        -0.0608
     21 C16         1.3999    3.8206    5.7862 C.3       1 <1>        -0.0714
     22 C17         1.3039    5.3665    5.7650 C.3       1 <1>        -0.0681
     23 C18         2.4190    5.8014    4.7917 C.3       1 <1>        -0.0548
     24 H1         -0.7744    9.2438   -1.1767 H         1 <1>         0.0677
     25 H2         -1.4958    9.7160   -2.7338 H         1 <1>         0.0859
     26 H3         -1.5141    8.0103   -2.2252 H         1 <1>         0.0675
     27 H4          3.1971    7.3635   -3.2772 H         1 <1>         0.1315
     28 H5          4.2682    5.5931   -1.9495 H         1 <1>         0.1431
     29 H6          0.8379    5.4523    0.6176 H         1 <1>         0.1278
     30 H7         -0.2227    7.2299   -0.7090 H         1 <1>         0.1180
     31 H8          3.7412    2.8029    4.0238 H         1 <1>         0.2008
     32 H9          5.1715    0.8510    4.0359 H         1 <1>         0.2064
     33 H10         5.7295    1.0660   -0.0831 H         1 <1>         0.2693
     34 H11         1.4334    4.9171    2.2669 H         1 <1>         0.2862
     35 H12         3.7227    4.2727    3.9743 H         1 <1>         0.0977
     36 H13         0.8230    3.4886    3.7057 H         1 <1>         0.0461
     37 H14         2.2214    2.5072    4.2453 H         1 <1>         0.0464
     38 H15         2.2023    3.4924    6.4469 H         1 <1>         0.0457
     39 H16         0.4496    3.3786    6.0858 H         1 <1>         0.0464
     40 H17         1.4855    5.7735    6.7596 H         1 <1>         0.0467
     41 H18         0.3291    5.6831    5.3943 H         1 <1>         0.0444
     42 H19         3.3216    6.0551    5.3475 H         1 <1>         0.0562
     43 H20         2.0894    6.6582    4.2041 H         1 <1>         0.0633
@<TRIPOS>BOND
     1    1    2 1
     2    1   24 1
     3    1   25 1
     4    1   26 1
     5    2    3 1
     6    3    8 ar
     7    3    4 ar
     8    4    5 ar
     9    4   27 1
    10    5    6 ar
    11    5   28 1
    12    6    7 ar
    13    6    9 1
    14    7    8 ar
    15    7   29 1
    16    8   30 1
    17    9   17 1
    18    9   10 2
    19   10   11 1
    20   10   18 1
    21   11   16 1
    22   11   12 1
    23   12   13 2
    24   12   31 1
    25   13   14 1
    26   13   32 1
    27   14   15 2
    28   15   16 1
    29   15   33 1
    30   16   17 2
    31   18   19 1
    32   18   34 1
    33   19   23 1
    34   19   20 1
    35   19   35 1
    36   20   21 1
    37   20   36 1
    38   20   37 1
    39   21   22 1
    40   21   38 1
    41   21   39 1
    42   22   23 1
    43   22   40 1
    44   22   41 1
    45   23   42 1
    46   23   43 1
@<TRIPOS>Similarity
1.0245
@<TRIPOS>ShapeSim
0.6280
@<TRIPOS>PharmSim
0.3965
# END
# Name:		ZINC04597381
# Created and modified by SHAFTS on Mon Jun 23 14:53:19 2014

# 

@<TRIPOS>MOLECULE
ZINC04597381
   43    46     0
SMALL
USER_CHARGE


@<TRIPOS>ATOM
      1 C1         -0.9416    8.9376   -2.2093 C.3       1 <1>        -0.0147
      2 S1          0.6557    8.6763   -3.0286 S.3       1 <1>        -0.2184
      3 C2          1.4209    7.4071   -2.0756 C.ar      1 <1>        -0.0730
      4 C3          2.6853    6.9445   -2.4234 C.ar      1 <1>        -0.0785
      5 C4          3.2862    5.9520   -1.6791 C.ar      1 <1>        -0.0618
      6 C5          2.6247    5.4114   -0.5765 C.ar      1 <1>        -0.0225
      7 C6          1.3539    5.8726   -0.2331 C.ar      1 <1>        -0.0715
      8 C7          0.7594    6.8693   -0.9771 C.ar      1 <1>        -0.0882
      9 C8          3.2686    4.3442    0.2254 C.2       1 <1>         0.0319
     10 C9          3.1553    4.1756    1.5944 C.2       1 <1>         0.0193
     11 N1          3.9000    3.0846    1.9185 N.pl3     1 <1>        -0.2978
     12 C10         4.1675    2.4407    3.1000 C.2       1 <1>        -0.0134
     13 C11         4.9646    1.3536    3.1026 C.2       1 <1>        -0.0214
     14 N2          5.5044    0.8856    1.9725 N.2       1 <1>        -0.3737
     15 C12         5.2815    1.4629    0.8160 C.2       1 <1>         0.0491
     16 C13         4.4560    2.6028    0.7508 C.2       1 <1>         0.0666
     17 N3          4.0639    3.3727   -0.2489 N.2       1 <1>        -0.3461
     18 N4          2.4200    4.9702    2.4715 N.pl3     1 <1>        -0.3802
     19 C14         2.6889    4.6009    3.8677 C.3       1 <1>        -0.0477
     20 C15         1.7292    3.4775    4.3112 C.3       1 <1>        -0.0608
     21 C16         1.3999    3.8206    5.7862 C.3       1 <1>        -0.0714
     22 C17         1.3039    5.3665    5.7650 C.3       1 <1>        -0.0681
     23 C18         2.4190    5.8014    4.7917 C.3       1 <1>        -0.0548
     24 H1         -0.7744    9.2438   -1.1767 H         1 <1>         0.0677
     25 H2         -1.4958    9.7160   -2.7338 H         1 <1>         0.0859
     26 H3         -1.5141    8.0103   -2.2252 H         1 <1>         0.0675
     27 H4          3.1971    7.3635   -3.2772 H         1 <1>         0.1315
     28 H5          4.2682    5.5931   -1.9495 H         1 <1>         0.1431
     29 H6          0.8379    5.4523    0.6176 H         1 <1>         0.1278
     30 H7         -0.2227    7.2299   -0.7090 H         1 <1>         0.1180
     31 H8          3.7412    2.8029    4.0238 H         1 <1>         0.2008
     32 H9          5.1715    0.8510    4.0359 H         1 <1>         0.2064
     33 H10         5.7295    1.0660   -0.0831 H         1 <1>         0.2693
     34 H11         1.4334    4.9171    2.2669 H         1 <1>         0.2862
     35 H12         3.7227    4.2727    3.9743 H         1 <1>         0.0977
     36 H13         0.8230    3.4886    3.7057 H         1 <1>         0.0461
     37 H14         2.2214    2.5072    4.2453 H         1 <1>         0.0464
     38 H15         2.2023    3.4924    6.4469 H         1 <1>         0.0457
     39 H16         0.4496    3.3786    6.0858 H         1 <1>         0.0464
     40 H17         1.4855    5.7735    6.7596 H         1 <1>         0.0467
     41 H18         0.3291    5.6831    5.3943 H         1 <1>         0.0444
     42 H19         3.3216    6.0551    5.3475 H         1 <1>         0.0562
     43 H20         2.0894    6.6582    4.2041 H         1 <1>         0.0633
@<TRIPOS>BOND
     1    1    2 1
     2    1   24 1
     3    1   25 1
     4    1   26 1
     5    2    3 1
     6    3    8 ar
     7    3    4 ar
     8    4    5 ar
     9    4   27 1
    10    5    6 ar
    11    5   28 1
    12    6    7 ar
    13    6    9 1
    14    7    8 ar
    15    7   29 1
    16    8   30 1
    17    9   17 1
    18    9   10 2
    19   10   11 1
    20   10   18 1
    21   11   16 1
    22   11   12 1
    23   12   13 2
    24   12   31 1
    25   13   14 1
    26   13   32 1
    27   14   15 2
    28   15   16 1
    29   15   33 1
    30   16   17 2
    31   18   19 1
    32   18   34 1
    33   19   23 1
    34   19   20 1
    35   19   35 1
    36   20   21 1
    37   20   36 1
    38   20   37 1
    39   21   22 1
    40   21   38 1
    41   21   39 1
    42   22   23 1
    43   22   40 1
    44   22   41 1
    45   23   42 1
    46   23   43 1
@<TRIPOS>Similarity
1.0245
@<TRIPOS>ShapeSim
0.6280
@<TRIPOS>PharmSim
0.3965
# END
# Name:		ZINC04597381
# Created and modified by SHAFTS on Mon Jun 23 14:53:19 2014

# 

@<TRIPOS>MOLECULE
ZINC04597381
   43    46     0
SMALL
USER_CHARGE


@<TRIPOS>ATOM
      1 C1         -0.9416    8.9376   -2.2093 C.3       1 <1>        -0.0147
      2 S1          0.6557    8.6763   -3.0286 S.3       1 <1>        -0.2184
      3 C2          1.4209    7.4071   -2.0756 C.ar      1 <1>        -0.0730
      4 C3          2.6853    6.9445   -2.4234 C.ar      1 <1>        -0.0785
      5 C4          3.2862    5.9520   -1.6791 C.ar      1 <1>        -0.0618
      6 C5          2.6247    5.4114   -0.5765 C.ar      1 <1>        -0.0225
      7 C6          1.3539    5.8726   -0.2331 C.ar      1 <1>        -0.0715
      8 C7          0.7594    6.8693   -0.9771 C.ar      1 <1>        -0.0882
      9 C8          3.2686    4.3442    0.2254 C.2       1 <1>         0.0319
     10 C9          3.1553    4.1756    1.5944 C.2       1 <1>         0.0193
     11 N1          3.9000    3.0846    1.9185 N.pl3     1 <1>        -0.2978
     12 C10         4.1675    2.4407    3.1000 C.2       1 <1>        -0.0134
     13 C11         4.9646    1.3536    3.1026 C.2       1 <1>        -0.0214
     14 N2          5.5044    0.8856    1.9725 N.2       1 <1>        -0.3737
     15 C12         5.2815    1.4629    0.8160 C.2       1 <1>         0.0491
     16 C13         4.4560    2.6028    0.7508 C.2       1 <1>         0.0666
     17 N3          4.0639    3.3727   -0.2489 N.2       1 <1>        -0.3461
     18 N4          2.4200    4.9702    2.4715 N.pl3     1 <1>        -0.3802
     19 C14         2.6889    4.6009    3.8677 C.3       1 <1>        -0.0477
     20 C15         1.7292    3.4775    4.3112 C.3       1 <1>        -0.0608
     21 C16         1.3999    3.8206    5.7862 C.3       1 <1>        -0.0714
     22 C17         1.3039    5.3665    5.7650 C.3       1 <1>        -0.0681
     23 C18         2.4190    5.8014    4.7917 C.3       1 <1>        -0.0548
     24 H1         -0.7744    9.2438   -1.1767 H         1 <1>         0.0677
     25 H2         -1.4958    9.7160   -2.7338 H         1 <1>         0.0859
     26 H3         -1.5141    8.0103   -2.2252 H         1 <1>         0.0675
     27 H4          3.1971    7.3635   -3.2772 H         1 <1>         0.1315
     28 H5          4.2682    5.5931   -1.9495 H         1 <1>         0.1431
     29 H6          0.8379    5.4523    0.6176 H         1 <1>         0.1278
     30 H7         -0.2227    7.2299   -0.7090 H         1 <1>         0.1180
     31 H8          3.7412    2.8029    4.0238 H         1 <1>         0.2008
     32 H9          5.1715    0.8510    4.0359 H         1 <1>         0.2064
     33 H10         5.7295    1.0660   -0.0831 H         1 <1>         0.2693
     34 H11         1.4334    4.9171    2.2669 H         1 <1>         0.2862
     35 H12         3.7227    4.2727    3.9743 H         1 <1>         0.0977
     36 H13         0.8230    3.4886    3.7057 H         1 <1>         0.0461
     37 H14         2.2214    2.5072    4.2453 H         1 <1>         0.0464
     38 H15         2.2023    3.4924    6.4469 H         1 <1>         0.0457
     39 H16         0.4496    3.3786    6.0858 H         1 <1>         0.0464
     40 H17         1.4855    5.7735    6.7596 H         1 <1>         0.0467
     41 H18         0.3291    5.6831    5.3943 H         1 <1>         0.0444
     42 H19         3.3216    6.0551    5.3475 H         1 <1>         0.0562
     43 H20         2.0894    6.6582    4.2041 H         1 <1>         0.0633
@<TRIPOS>BOND
     1    1    2 1
     2    1   24 1
     3    1   25 1
     4    1   26 1
     5    2    3 1
     6    3    8 ar
     7    3    4 ar
     8    4    5 ar
     9    4   27 1
    10    5    6 ar
    11    5   28 1
    12    6    7 ar
    13    6    9 1
    14    7    8 ar
    15    7   29 1
    16    8   30 1
    17    9   17 1
    18    9   10 2
    19   10   11 1
    20   10   18 1
    21   11   16 1
    22   11   12 1
    23   12   13 2
    24   12   31 1
    25   13   14 1
    26   13   32 1
    27   14   15 2
    28   15   16 1
    29   15   33 1
    30   16   17 2
    31   18   19 1
    32   18   34 1
    33   19   23 1
    34   19   20 1
    35   19   35 1
    36   20   21 1
    37   20   36 1
    38   20   37 1
    39   21   22 1
    40   21   38 1
    41   21   39 1
    42   22   23 1
    43   22   40 1
    44   22   41 1
    45   23   42 1
    46   23   43 1
@<TRIPOS>Similarity
1.0245
@<TRIPOS>ShapeSim
0.6280
@<TRIPOS>PharmSim
0.3965
# END
# Name:		ZINC04597381
# Created and modified by SHAFTS on Mon Jun 23 14:53:19 2014

# 

@<TRIPOS>MOLECULE
ZINC04597381
   43    46     0
SMALL
USER_CHARGE


@<TRIPOS>ATOM
      1 C1         -0.9416    8.9376   -2.2093 C.3       1 <1>        -0.0147
      2 S1          0.6557    8.6763   -3.0286 S.3       1 <1>        -0.2184
      3 C2          1.4209    7.4071   -2.0756 C.ar      1 <1>        -0.0730
      4 C3          2.6853    6.9445   -2.4234 C.ar      1 <1>        -0.0785
      5 C4          3.2862    5.9520   -1.6791 C.ar      1 <1>        -0.0618
      6 C5          2.6247    5.4114   -0.5765 C.ar      1 <1>        -0.0225
      7 C6          1.3539    5.8726   -0.2331 C.ar      1 <1>        -0.0715
      8 C7          0.7594    6.8693   -0.9771 C.ar      1 <1>        -0.0882
      9 C8          3.2686    4.3442    0.2254 C.2       1 <1>         0.0319
     10 C9          3.1553    4.1756    1.5944 C.2       1 <1>         0.0193
     11 N1          3.9000    3.0846    1.9185 N.pl3     1 <1>        -0.2978
     12 C10         4.1675    2.4407    3.1000 C.2       1 <1>        -0.0134
     13 C11         4.9646    1.3536    3.1026 C.2       1 <1>        -0.0214
     14 N2          5.5044    0.8856    1.9725 N.2       1 <1>        -0.3737
     15 C12         5.2815    1.4629    0.8160 C.2       1 <1>         0.0491
     16 C13         4.4560    2.6028    0.7508 C.2       1 <1>         0.0666
     17 N3          4.0639    3.3727   -0.2489 N.2       1 <1>        -0.3461
     18 N4          2.4200    4.9702    2.4715 N.pl3     1 <1>        -0.3802
     19 C14         2.6889    4.6009    3.8677 C.3       1 <1>        -0.0477
     20 C15         1.7292    3.4775    4.3112 C.3       1 <1>        -0.0608
     21 C16         1.3999    3.8206    5.7862 C.3       1 <1>        -0.0714
     22 C17         1.3039    5.3665    5.7650 C.3       1 <1>        -0.0681
     23 C18         2.4190    5.8014    4.7917 C.3       1 <1>        -0.0548
     24 H1         -0.7744    9.2438   -1.1767 H         1 <1>         0.0677
     25 H2         -1.4958    9.7160   -2.7338 H         1 <1>         0.0859
     26 H3         -1.5141    8.0103   -2.2252 H         1 <1>         0.0675
     27 H4          3.1971    7.3635   -3.2772 H         1 <1>         0.1315
     28 H5          4.2682    5.5931   -1.9495 H         1 <1>         0.1431
     29 H6          0.8379    5.4523    0.6176 H         1 <1>         0.1278
     30 H7         -0.2227    7.2299   -0.7090 H         1 <1>         0.1180
     31 H8          3.7412    2.8029    4.0238 H         1 <1>         0.2008
     32 H9          5.1715    0.8510    4.0359 H         1 <1>         0.2064
     33 H10         5.7295    1.0660   -0.0831 H         1 <1>         0.2693
     34 H11         1.4334    4.9171    2.2669 H         1 <1>         0.2862
     35 H12         3.7227    4.2727    3.9743 H         1 <1>         0.0977
     36 H13         0.8230    3.4886    3.7057 H         1 <1>         0.0461
     37 H14         2.2214    2.5072    4.2453 H         1 <1>         0.0464
     38 H15         2.2023    3.4924    6.4469 H         1 <1>         0.0457
     39 H16         0.4496    3.3786    6.0858 H         1 <1>         0.0464
     40 H17         1.4855    5.7735    6.7596 H         1 <1>         0.0467
     41 H18         0.3291    5.6831    5.3943 H         1 <1>         0.0444
     42 H19         3.3216    6.0551    5.3475 H         1 <1>         0.0562
     43 H20         2.0894    6.6582    4.2041 H         1 <1>         0.0633
@<TRIPOS>BOND
     1    1    2 1
     2    1   24 1
     3    1   25 1
     4    1   26 1
     5    2    3 1
     6    3    8 ar
     7    3    4 ar
     8    4    5 ar
     9    4   27 1
    10    5    6 ar
    11    5   28 1
    12    6    7 ar
    13    6    9 1
    14    7    8 ar
    15    7   29 1
    16    8   30 1
    17    9   17 1
    18    9   10 2
    19   10   11 1
    20   10   18 1
    21   11   16 1
    22   11   12 1
    23   12   13 2
    24   12   31 1
    25   13   14 1
    26   13   32 1
    27   14   15 2
    28   15   16 1
    29   15   33 1
    30   16   17 2
    31   18   19 1
    32   18   34 1
    33   19   23 1
    34   19   20 1
    35   19   35 1
    36   20   21 1
    37   20   36 1
    38   20   37 1
    39   21   22 1
    40   21   38 1
    41   21   39 1
    42   22   23 1
    43   22   40 1
    44   22   41 1
    45   23   42 1
    46   23   43 1
@<TRIPOS>Similarity
1.0245
@<TRIPOS>ShapeSim
0.6280
@<TRIPOS>PharmSim
0.3965
# END
# Name:		ZINC04597381
# Created and modified by SHAFTS on Mon Jun 23 14:53:19 2014

# 

@<TRIPOS>MOLECULE
ZINC04597381
   43    46     0
SMALL
USER_CHARGE


@<TRIPOS>ATOM
      1 C1         -0.9416    8.9376   -2.2093 C.3       1 <1>        -0.0147
      2 S1          0.6557    8.6763   -3.0286 S.3       1 <1>        -0.2184
      3 C2          1.4209    7.4071   -2.0756 C.ar      1 <1>        -0.0730
      4 C3          2.6853    6.9445   -2.4234 C.ar      1 <1>        -0.0785
      5 C4          3.2862    5.9520   -1.6791 C.ar      1 <1>        -0.0618
      6 C5          2.6247    5.4114   -0.5765 C.ar      1 <1>        -0.0225
      7 C6          1.3539    5.8726   -0.2331 C.ar      1 <1>        -0.0715
      8 C7          0.7594    6.8693   -0.9771 C.ar      1 <1>        -0.0882
      9 C8          3.2686    4.3442    0.2254 C.2       1 <1>         0.0319
     10 C9          3.1553    4.1756    1.5944 C.2       1 <1>         0.0193
     11 N1          3.9000    3.0846    1.9185 N.pl3     1 <1>        -0.2978
     12 C10         4.1675    2.4407    3.1000 C.2       1 <1>        -0.0134
     13 C11         4.9646    1.3536    3.1026 C.2       1 <1>        -0.0214
     14 N2          5.5044    0.8856    1.9725 N.2       1 <1>        -0.3737
     15 C12         5.2815    1.4629    0.8160 C.2       1 <1>         0.0491
     16 C13         4.4560    2.6028    0.7508 C.2       1 <1>         0.0666
     17 N3          4.0639    3.3727   -0.2489 N.2       1 <1>        -0.3461
     18 N4          2.4200    4.9702    2.4715 N.pl3     1 <1>        -0.3802
     19 C14         2.6889    4.6009    3.8677 C.3       1 <1>        -0.0477
     20 C15         1.7292    3.4775    4.3112 C.3       1 <1>        -0.0608
     21 C16         1.3999    3.8206    5.7862 C.3       1 <1>        -0.0714
     22 C17         1.3039    5.3665    5.7650 C.3       1 <1>        -0.0681
     23 C18         2.4190    5.8014    4.7917 C.3       1 <1>        -0.0548
     24 H1         -0.7744    9.2438   -1.1767 H         1 <1>         0.0677
     25 H2         -1.4958    9.7160   -2.7338 H         1 <1>         0.0859
     26 H3         -1.5141    8.0103   -2.2252 H         1 <1>         0.0675
     27 H4          3.1971    7.3635   -3.2772 H         1 <1>         0.1315
     28 H5          4.2682    5.5931   -1.9495 H         1 <1>         0.1431
     29 H6          0.8379    5.4523    0.6176 H         1 <1>         0.1278
     30 H7         -0.2227    7.2299   -0.7090 H         1 <1>         0.1180
     31 H8          3.7412    2.8029    4.0238 H         1 <1>         0.2008
     32 H9          5.1715    0.8510    4.0359 H         1 <1>         0.2064
     33 H10         5.7295    1.0660   -0.0831 H         1 <1>         0.2693
     34 H11         1.4334    4.9171    2.2669 H         1 <1>         0.2862
     35 H12         3.7227    4.2727    3.9743 H         1 <1>         0.0977
     36 H13         0.8230    3.4886    3.7057 H         1 <1>         0.0461
     37 H14         2.2214    2.5072    4.2453 H         1 <1>         0.0464
     38 H15         2.2023    3.4924    6.4469 H         1 <1>         0.0457
     39 H16         0.4496    3.3786    6.0858 H         1 <1>         0.0464
     40 H17         1.4855    5.7735    6.7596 H         1 <1>         0.0467
     41 H18         0.3291    5.6831    5.3943 H         1 <1>         0.0444
     42 H19         3.3216    6.0551    5.3475 H         1 <1>         0.0562
     43 H20         2.0894    6.6582    4.2041 H         1 <1>         0.0633
@<TRIPOS>BOND
     1    1    2 1
     2    1   24 1
     3    1   25 1
     4    1   26 1
     5    2    3 1
     6    3    8 ar
     7    3    4 ar
     8    4    5 ar
     9    4   27 1
    10    5    6 ar
    11    5   28 1
    12    6    7 ar
    13    6    9 1
    14    7    8 ar
    15    7   29 1
    16    8   30 1
    17    9   17 1
    18    9   10 2
    19   10   11 1
    20   10   18 1
    21   11   16 1
    22   11   12 1
    23   12   13 2
    24   12   31 1
    25   13   14 1
    26   13   32 1
    27   14   15 2
    28   15   16 1
    29   15   33 1
    30   16   17 2
    31   18   19 1
    32   18   34 1
    33   19   23 1
    34   19   20 1
    35   19   35 1
    36   20   21 1
    37   20   36 1
    38   20   37 1
    39   21   22 1
    40   21   38 1
    41   21   39 1
    42   22   23 1
    43   22   40 1
    44   22   41 1
    45   23   42 1
    46   23   43 1
@<TRIPOS>Similarity
1.0245
@<TRIPOS>ShapeSim
0.6280
@<TRIPOS>PharmSim
0.3965
# END
# Name:		ZINC04597381
# Created and modified by SHAFTS on Mon Jun 23 14:53:19 2014

# 

@<TRIPOS>MOLECULE
ZINC04597381
   43    46     0
SMALL
USER_CHARGE


@<TRIPOS>ATOM
      1 C1         -0.9416    8.9376   -2.2093 C.3       1 <1>        -0.0147
      2 S1          0.6557    8.6763   -3.0286 S.3       1 <1>        -0.2184
      3 C2          1.4209    7.4071   -2.0756 C.ar      1 <1>        -0.0730
      4 C3          2.6853    6.9445   -2.4234 C.ar      1 <1>        -0.0785
      5 C4          3.2862    5.9520   -1.6791 C.ar      1 <1>        -0.0618
      6 C5          2.6247    5.4114   -0.5765 C.ar      1 <1>        -0.0225
      7 C6          1.3539    5.8726   -0.2331 C.ar      1 <1>        -0.0715
      8 C7          0.7594    6.8693   -0.9771 C.ar      1 <1>        -0.0882
      9 C8          3.2686    4.3442    0.2254 C.2       1 <1>         0.0319
     10 C9          3.1553    4.1756    1.5944 C.2       1 <1>         0.0193
     11 N1          3.9000    3.0846    1.9185 N.pl3     1 <1>        -0.2978
     12 C10         4.1675    2.4407    3.1000 C.2       1 <1>        -0.0134
     13 C11         4.9646    1.3536    3.1026 C.2       1 <1>        -0.0214
     14 N2          5.5044    0.8856    1.9725 N.2       1 <1>        -0.3737
     15 C12         5.2815    1.4629    0.8160 C.2       1 <1>         0.0491
     16 C13         4.4560    2.6028    0.7508 C.2       1 <1>         0.0666
     17 N3          4.0639    3.3727   -0.2489 N.2       1 <1>        -0.3461
     18 N4          2.4200    4.9702    2.4715 N.pl3     1 <1>        -0.3802
     19 C14         2.6889    4.6009    3.8677 C.3       1 <1>        -0.0477
     20 C15         1.7292    3.4775    4.3112 C.3       1 <1>        -0.0608
     21 C16         1.3999    3.8206    5.7862 C.3       1 <1>        -0.0714
     22 C17         1.3039    5.3665    5.7650 C.3       1 <1>        -0.0681
     23 C18         2.4190    5.8014    4.7917 C.3       1 <1>        -0.0548
     24 H1         -0.7744    9.2438   -1.1767 H         1 <1>         0.0677
     25 H2         -1.4958    9.7160   -2.7338 H         1 <1>         0.0859
     26 H3         -1.5141    8.0103   -2.2252 H         1 <1>         0.0675
     27 H4          3.1971    7.3635   -3.2772 H         1 <1>         0.1315
     28 H5          4.2682    5.5931   -1.9495 H         1 <1>         0.1431
     29 H6          0.8379    5.4523    0.6176 H         1 <1>         0.1278
     30 H7         -0.2227    7.2299   -0.7090 H         1 <1>         0.1180
     31 H8          3.7412    2.8029    4.0238 H         1 <1>         0.2008
     32 H9          5.1715    0.8510    4.0359 H         1 <1>         0.2064
     33 H10         5.7295    1.0660   -0.0831 H         1 <1>         0.2693
     34 H11         1.4334    4.9171    2.2669 H         1 <1>         0.2862
     35 H12         3.7227    4.2727    3.9743 H         1 <1>         0.0977
     36 H13         0.8230    3.4886    3.7057 H         1 <1>         0.0461
     37 H14         2.2214    2.5072    4.2453 H         1 <1>         0.0464
     38 H15         2.2023    3.4924    6.4469 H         1 <1>         0.0457
     39 H16         0.4496    3.3786    6.0858 H         1 <1>         0.0464
     40 H17         1.4855    5.7735    6.7596 H         1 <1>         0.0467
     41 H18         0.3291    5.6831    5.3943 H         1 <1>         0.0444
     42 H19         3.3216    6.0551    5.3475 H         1 <1>         0.0562
     43 H20         2.0894    6.6582    4.2041 H         1 <1>         0.0633
@<TRIPOS>BOND
     1    1    2 1
     2    1   24 1
     3    1   25 1
     4    1   26 1
     5    2    3 1
     6    3    8 ar
     7    3    4 ar
     8    4    5 ar
     9    4   27 1
    10    5    6 ar
    11    5   28 1
    12    6    7 ar
    13    6    9 1
    14    7    8 ar
    15    7   29 1
    16    8   30 1
    17    9   17 1
    18    9   10 2
    19   10   11 1
    20   10   18 1
    21   11   16 1
    22   11   12 1
    23   12   13 2
    24   12   31 1
    25   13   14 1
    26   13   32 1
    27   14   15 2
    28   15   16 1
    29   15   33 1
    30   16   17 2
    31   18   19 1
    32   18   34 1
    33   19   23 1
    34   19   20 1
    35   19   35 1
    36   20   21 1
    37   20   36 1
    38   20   37 1
    39   21   22 1
    40   21   38 1
    41   21   39 1
    42   22   23 1
    43   22   40 1
    44   22   41 1
    45   23   42 1
    46   23   43 1
@<TRIPOS>Similarity
1.0245
@<TRIPOS>ShapeSim
0.6280
@<TRIPOS>PharmSim
0.3965
# END
# Name:		ZINC04597381
# Created and modified by SHAFTS on Mon Jun 23 14:53:19 2014

# 

@<TRIPOS>MOLECULE
ZINC04597381
   43    46     0
SMALL
USER_CHARGE


@<TRIPOS>ATOM
      1 C1         -0.9416    8.9376   -2.2093 C.3       1 <1>        -0.0147
      2 S1          0.6557    8.6763   -3.0286 S.3       1 <1>        -0.2184
      3 C2          1.4209    7.4071   -2.0756 C.ar      1 <1>        -0.0730
      4 C3          2.6853    6.9445   -2.4234 C.ar      1 <1>        -0.0785
      5 C4          3.2862    5.9520   -1.6791 C.ar      1 <1>        -0.0618
      6 C5          2.6247    5.4114   -0.5765 C.ar      1 <1>        -0.0225
      7 C6          1.3539    5.8726   -0.2331 C.ar      1 <1>        -0.0715
      8 C7          0.7594    6.8693   -0.9771 C.ar      1 <1>        -0.0882
      9 C8          3.2686    4.3442    0.2254 C.2       1 <1>         0.0319
     10 C9          3.1553    4.1756    1.5944 C.2       1 <1>         0.0193
     11 N1          3.9000    3.0846    1.9185 N.pl3     1 <1>        -0.2978
     12 C10         4.1675    2.4407    3.1000 C.2       1 <1>        -0.0134
     13 C11         4.9646    1.3536    3.1026 C.2       1 <1>        -0.0214
     14 N2          5.5044    0.8856    1.9725 N.2       1 <1>        -0.3737
     15 C12         5.2815    1.4629    0.8160 C.2       1 <1>         0.0491
     16 C13         4.4560    2.6028    0.7508 C.2       1 <1>         0.0666
     17 N3          4.0639    3.3727   -0.2489 N.2       1 <1>        -0.3461
     18 N4          2.4200    4.9702    2.4715 N.pl3     1 <1>        -0.3802
     19 C14         2.6889    4.6009    3.8677 C.3       1 <1>        -0.0477
     20 C15         1.7292    3.4775    4.3112 C.3       1 <1>        -0.0608
     21 C16         1.3999    3.8206    5.7862 C.3       1 <1>        -0.0714
     22 C17         1.3039    5.3665    5.7650 C.3       1 <1>        -0.0681
     23 C18         2.4190    5.8014    4.7917 C.3       1 <1>        -0.0548
     24 H1         -0.7744    9.2438   -1.1767 H         1 <1>         0.0677
     25 H2         -1.4958    9.7160   -2.7338 H         1 <1>         0.0859
     26 H3         -1.5141    8.0103   -2.2252 H         1 <1>         0.0675
     27 H4          3.1971    7.3635   -3.2772 H         1 <1>         0.1315
     28 H5          4.2682    5.5931   -1.9495 H         1 <1>         0.1431
     29 H6          0.8379    5.4523    0.6176 H         1 <1>         0.1278
     30 H7         -0.2227    7.2299   -0.7090 H         1 <1>         0.1180
     31 H8          3.7412    2.8029    4.0238 H         1 <1>         0.2008
     32 H9          5.1715    0.8510    4.0359 H         1 <1>         0.2064
     33 H10         5.7295    1.0660   -0.0831 H         1 <1>         0.2693
     34 H11         1.4334    4.9171    2.2669 H         1 <1>         0.2862
     35 H12         3.7227    4.2727    3.9743 H         1 <1>         0.0977
     36 H13         0.8230    3.4886    3.7057 H         1 <1>         0.0461
     37 H14         2.2214    2.5072    4.2453 H         1 <1>         0.0464
     38 H15         2.2023    3.4924    6.4469 H         1 <1>         0.0457
     39 H16         0.4496    3.3786    6.0858 H         1 <1>         0.0464
     40 H17         1.4855    5.7735    6.7596 H         1 <1>         0.0467
     41 H18         0.3291    5.6831    5.3943 H         1 <1>         0.0444
     42 H19         3.3216    6.0551    5.3475 H         1 <1>         0.0562
     43 H20         2.0894    6.6582    4.2041 H         1 <1>         0.0633
@<TRIPOS>BOND
     1    1    2 1
     2    1   24 1
     3    1   25 1
     4    1   26 1
     5    2    3 1
     6    3    8 ar
     7    3    4 ar
     8    4    5 ar
     9    4   27 1
    10    5    6 ar
    11    5   28 1
    12    6    7 ar
    13    6    9 1
    14    7    8 ar
    15    7   29 1
    16    8   30 1
    17    9   17 1
    18    9   10 2
    19   10   11 1
    20   10   18 1
    21   11   16 1
    22   11   12 1
    23   12   13 2
    24   12   31 1
    25   13   14 1
    26   13   32 1
    27   14   15 2
    28   15   16 1
    29   15   33 1
    30   16   17 2
    31   18   19 1
    32   18   34 1
    33   19   23 1
    34   19   20 1
    35   19   35 1
    36   20   21 1
    37   20   36 1
    38   20   37 1
    39   21   22 1
    40   21   38 1
    41   21   39 1
    42   22   23 1
    43   22   40 1
    44   22   41 1
    45   23   42 1
    46   23   43 1
@<TRIPOS>Similarity
1.0245
@<TRIPOS>ShapeSim
0.6280
@<TRIPOS>PharmSim
0.3965
# END
# Name:		ZINC04597381
# Created and modified by SHAFTS on Mon Jun 23 14:53:19 2014

# 

@<TRIPOS>MOLECULE
ZINC04597381
   43    46     0
SMALL
USER_CHARGE


@<TRIPOS>ATOM
      1 C1         -0.9416    8.9376   -2.2093 C.3       1 <1>        -0.0147
      2 S1          0.6557    8.6763   -3.0286 S.3       1 <1>        -0.2184
      3 C2          1.4209    7.4071   -2.0756 C.ar      1 <1>        -0.0730
      4 C3          2.6853    6.9445   -2.4234 C.ar      1 <1>        -0.0785
      5 C4          3.2862    5.9520   -1.6791 C.ar      1 <1>        -0.0618
      6 C5          2.6247    5.4114   -0.5765 C.ar      1 <1>        -0.0225
      7 C6          1.3539    5.8726   -0.2331 C.ar      1 <1>        -0.0715
      8 C7          0.7594    6.8693   -0.9771 C.ar      1 <1>        -0.0882
      9 C8          3.2686    4.3442    0.2254 C.2       1 <1>         0.0319
     10 C9          3.1553    4.1756    1.5944 C.2       1 <1>         0.0193
     11 N1          3.9000    3.0846    1.9185 N.pl3     1 <1>        -0.2978
     12 C10         4.1675    2.4407    3.1000 C.2       1 <1>        -0.0134
     13 C11         4.9646    1.3536    3.1026 C.2       1 <1>        -0.0214
     14 N2          5.5044    0.8856    1.9725 N.2       1 <1>        -0.3737
     15 C12         5.2815    1.4629    0.8160 C.2       1 <1>         0.0491
     16 C13         4.4560    2.6028    0.7508 C.2       1 <1>         0.0666
     17 N3          4.0639    3.3727   -0.2489 N.2       1 <1>        -0.3461
     18 N4          2.4200    4.9702    2.4715 N.pl3     1 <1>        -0.3802
     19 C14         2.6889    4.6009    3.8677 C.3       1 <1>        -0.0477
     20 C15         1.7292    3.4775    4.3112 C.3       1 <1>        -0.0608
     21 C16         1.3999    3.8206    5.7862 C.3       1 <1>        -0.0714
     22 C17         1.3039    5.3665    5.7650 C.3       1 <1>        -0.0681
     23 C18         2.4190    5.8014    4.7917 C.3       1 <1>        -0.0548
     24 H1         -0.7744    9.2438   -1.1767 H         1 <1>         0.0677
     25 H2         -1.4958    9.7160   -2.7338 H         1 <1>         0.0859
     26 H3         -1.5141    8.0103   -2.2252 H         1 <1>         0.0675
     27 H4          3.1971    7.3635   -3.2772 H         1 <1>         0.1315
     28 H5          4.2682    5.5931   -1.9495 H         1 <1>         0.1431
     29 H6          0.8379    5.4523    0.6176 H         1 <1>         0.1278
     30 H7         -0.2227    7.2299   -0.7090 H         1 <1>         0.1180
     31 H8          3.7412    2.8029    4.0238 H         1 <1>         0.2008
     32 H9          5.1715    0.8510    4.0359 H         1 <1>         0.2064
     33 H10         5.7295    1.0660   -0.0831 H         1 <1>         0.2693
     34 H11         1.4334    4.9171    2.2669 H         1 <1>         0.2862
     35 H12         3.7227    4.2727    3.9743 H         1 <1>         0.0977
     36 H13         0.8230    3.4886    3.7057 H         1 <1>         0.0461
     37 H14         2.2214    2.5072    4.2453 H         1 <1>         0.0464
     38 H15         2.2023    3.4924    6.4469 H         1 <1>         0.0457
     39 H16         0.4496    3.3786    6.0858 H         1 <1>         0.0464
     40 H17         1.4855    5.7735    6.7596 H         1 <1>         0.0467
     41 H18         0.3291    5.6831    5.3943 H         1 <1>         0.0444
     42 H19         3.3216    6.0551    5.3475 H         1 <1>         0.0562
     43 H20         2.0894    6.6582    4.2041 H         1 <1>         0.0633
@<TRIPOS>BOND
     1    1    2 1
     2    1   24 1
     3    1   25 1
     4    1   26 1
     5    2    3 1
     6    3    8 ar
     7    3    4 ar
     8    4    5 ar
     9    4   27 1
    10    5    6 ar
    11    5   28 1
    12    6    7 ar
    13    6    9 1
    14    7    8 ar
    15    7   29 1
    16    8   30 1
    17    9   17 1
    18    9   10 2
    19   10   11 1
    20   10   18 1
    21   11   16 1
    22   11   12 1
    23   12   13 2
    24   12   31 1
    25   13   14 1
    26   13   32 1
    27   14   15 2
    28   15   16 1
    29   15   33 1
    30   16   17 2
    31   18   19 1
    32   18   34 1
    33   19   23 1
    34   19   20 1
    35   19   35 1
    36   20   21 1
    37   20   36 1
    38   20   37 1
    39   21   22 1
    40   21   38 1
    41   21   39 1
    42   22   23 1
    43   22   40 1
    44   22   41 1
    45   23   42 1
    46   23   43 1
@<TRIPOS>Similarity
1.0245
@<TRIPOS>ShapeSim
0.6280
@<TRIPOS>PharmSim
0.3965
# END
# Name:		ZINC04597381
# Created and modified by SHAFTS on Mon Jun 23 14:53:19 2014

# 

@<TRIPOS>MOLECULE
ZINC04597381
   43    46     0
SMALL
USER_CHARGE


@<TRIPOS>ATOM
      1 C1         -0.9416    8.9376   -2.2093 C.3       1 <1>        -0.0147
      2 S1          0.6557    8.6763   -3.0286 S.3       1 <1>        -0.2184
      3 C2          1.4209    7.4071   -2.0756 C.ar      1 <1>        -0.0730
      4 C3          2.6853    6.9445   -2.4234 C.ar      1 <1>        -0.0785
      5 C4          3.2862    5.9520   -1.6791 C.ar      1 <1>        -0.0618
      6 C5          2.6247    5.4114   -0.5765 C.ar      1 <1>        -0.0225
      7 C6          1.3539    5.8726   -0.2331 C.ar      1 <1>        -0.0715
      8 C7          0.7594    6.8693   -0.9771 C.ar      1 <1>        -0.0882
      9 C8          3.2686    4.3442    0.2254 C.2       1 <1>         0.0319
     10 C9          3.1553    4.1756    1.5944 C.2       1 <1>         0.0193
     11 N1          3.9000    3.0846    1.9185 N.pl3     1 <1>        -0.2978
     12 C10         4.1675    2.4407    3.1000 C.2       1 <1>        -0.0134
     13 C11         4.9646    1.3536    3.1026 C.2       1 <1>        -0.0214
     14 N2          5.5044    0.8856    1.9725 N.2       1 <1>        -0.3737
     15 C12         5.2815    1.4629    0.8160 C.2       1 <1>         0.0491
     16 C13         4.4560    2.6028    0.7508 C.2       1 <1>         0.0666
     17 N3          4.0639    3.3727   -0.2489 N.2       1 <1>        -0.3461
     18 N4          2.4200    4.9702    2.4715 N.pl3     1 <1>        -0.3802
     19 C14         2.6889    4.6009    3.8677 C.3       1 <1>        -0.0477
     20 C15         1.7292    3.4775    4.3112 C.3       1 <1>        -0.0608
     21 C16         1.3999    3.8206    5.7862 C.3       1 <1>        -0.0714
     22 C17         1.3039    5.3665    5.7650 C.3       1 <1>        -0.0681
     23 C18         2.4190    5.8014    4.7917 C.3       1 <1>        -0.0548
     24 H1         -0.7744    9.2438   -1.1767 H         1 <1>         0.0677
     25 H2         -1.4958    9.7160   -2.7338 H         1 <1>         0.0859
     26 H3         -1.5141    8.0103   -2.2252 H         1 <1>         0.0675
     27 H4          3.1971    7.3635   -3.2772 H         1 <1>         0.1315
     28 H5          4.2682    5.5931   -1.9495 H         1 <1>         0.1431
     29 H6          0.8379    5.4523    0.6176 H         1 <1>         0.1278
     30 H7         -0.2227    7.2299   -0.7090 H         1 <1>         0.1180
     31 H8          3.7412    2.8029    4.0238 H         1 <1>         0.2008
     32 H9          5.1715    0.8510    4.0359 H         1 <1>         0.2064
     33 H10         5.7295    1.0660   -0.0831 H         1 <1>         0.2693
     34 H11         1.4334    4.9171    2.2669 H         1 <1>         0.2862
     35 H12         3.7227    4.2727    3.9743 H         1 <1>         0.0977
     36 H13         0.8230    3.4886    3.7057 H         1 <1>         0.0461
     37 H14         2.2214    2.5072    4.2453 H         1 <1>         0.0464
     38 H15         2.2023    3.4924    6.4469 H         1 <1>         0.0457
     39 H16         0.4496    3.3786    6.0858 H         1 <1>         0.0464
     40 H17         1.4855    5.7735    6.7596 H         1 <1>         0.0467
     41 H18         0.3291    5.6831    5.3943 H         1 <1>         0.0444
     42 H19         3.3216    6.0551    5.3475 H         1 <1>         0.0562
     43 H20         2.0894    6.6582    4.2041 H         1 <1>         0.0633
@<TRIPOS>BOND
     1    1    2 1
     2    1   24 1
     3    1   25 1
     4    1   26 1
     5    2    3 1
     6    3    8 ar
     7    3    4 ar
     8    4    5 ar
     9    4   27 1
    10    5    6 ar
    11    5   28 1
    12    6    7 ar
    13    6    9 1
    14    7    8 ar
    15    7   29 1
    16    8   30 1
    17    9   17 1
    18    9   10 2
    19   10   11 1
    20   10   18 1
    21   11   16 1
    22   11   12 1
    23   12   13 2
    24   12   31 1
    25   13   14 1
    26   13   32 1
    27   14   15 2
    28   15   16 1
    29   15   33 1
    30   16   17 2
    31   18   19 1
    32   18   34 1
    33   19   23 1
    34   19   20 1
    35   19   35 1
    36   20   21 1
    37   20   36 1
    38   20   37 1
    39   21   22 1
    40   21   38 1
    41   21   39 1
    42   22   23 1
    43   22   40 1
    44   22   41 1
    45   23   42 1
    46   23   43 1
@<TRIPOS>Similarity
1.0245
@<TRIPOS>ShapeSim
0.6280
@<TRIPOS>PharmSim
0.3965
# END
# Name:		ZINC04597381
# Created and modified by SHAFTS on Mon Jun 23 14:53:19 2014

# 

@<TRIPOS>MOLECULE
ZINC04597381
   43    46     0
SMALL
USER_CHARGE


@<TRIPOS>ATOM
      1 C1         -0.9416    8.9376   -2.2093 C.3       1 <1>        -0.0147
      2 S1          0.6557    8.6763   -3.0286 S.3       1 <1>        -0.2184
      3 C2          1.4209    7.4071   -2.0756 C.ar      1 <1>        -0.0730
      4 C3          2.6853    6.9445   -2.4234 C.ar      1 <1>        -0.0785
      5 C4          3.2862    5.9520   -1.6791 C.ar      1 <1>        -0.0618
      6 C5          2.6247    5.4114   -0.5765 C.ar      1 <1>        -0.0225
      7 C6          1.3539    5.8726   -0.2331 C.ar      1 <1>        -0.0715
      8 C7          0.7594    6.8693   -0.9771 C.ar      1 <1>        -0.0882
      9 C8          3.2686    4.3442    0.2254 C.2       1 <1>         0.0319
     10 C9          3.1553    4.1756    1.5944 C.2       1 <1>         0.0193
     11 N1          3.9000    3.0846    1.9185 N.pl3     1 <1>        -0.2978
     12 C10         4.1675    2.4407    3.1000 C.2       1 <1>        -0.0134
     13 C11         4.9646    1.3536    3.1026 C.2       1 <1>        -0.0214
     14 N2          5.5044    0.8856    1.9725 N.2       1 <1>        -0.3737
     15 C12         5.2815    1.4629    0.8160 C.2       1 <1>         0.0491
     16 C13         4.4560    2.6028    0.7508 C.2       1 <1>         0.0666
     17 N3          4.0639    3.3727   -0.2489 N.2       1 <1>        -0.3461
     18 N4          2.4200    4.9702    2.4715 N.pl3     1 <1>        -0.3802
     19 C14         2.6889    4.6009    3.8677 C.3       1 <1>        -0.0477
     20 C15         1.7292    3.4775    4.3112 C.3       1 <1>        -0.0608
     21 C16         1.3999    3.8206    5.7862 C.3       1 <1>        -0.0714
     22 C17         1.3039    5.3665    5.7650 C.3       1 <1>        -0.0681
     23 C18         2.4190    5.8014    4.7917 C.3       1 <1>        -0.0548
     24 H1         -0.7744    9.2438   -1.1767 H         1 <1>         0.0677
     25 H2         -1.4958    9.7160   -2.7338 H         1 <1>         0.0859
     26 H3         -1.5141    8.0103   -2.2252 H         1 <1>         0.0675
     27 H4          3.1971    7.3635   -3.2772 H         1 <1>         0.1315
     28 H5          4.2682    5.5931   -1.9495 H         1 <1>         0.1431
     29 H6          0.8379    5.4523    0.6176 H         1 <1>         0.1278
     30 H7         -0.2227    7.2299   -0.7090 H         1 <1>         0.1180
     31 H8          3.7412    2.8029    4.0238 H         1 <1>         0.2008
     32 H9          5.1715    0.8510    4.0359 H         1 <1>         0.2064
     33 H10         5.7295    1.0660   -0.0831 H         1 <1>         0.2693
     34 H11         1.4334    4.9171    2.2669 H         1 <1>         0.2862
     35 H12         3.7227    4.2727    3.9743 H         1 <1>         0.0977
     36 H13         0.8230    3.4886    3.7057 H         1 <1>         0.0461
     37 H14         2.2214    2.5072    4.2453 H         1 <1>         0.0464
     38 H15         2.2023    3.4924    6.4469 H         1 <1>         0.0457
     39 H16         0.4496    3.3786    6.0858 H         1 <1>         0.0464
     40 H17         1.4855    5.7735    6.7596 H         1 <1>         0.0467
     41 H18         0.3291    5.6831    5.3943 H         1 <1>         0.0444
     42 H19         3.3216    6.0551    5.3475 H         1 <1>         0.0562
     43 H20         2.0894    6.6582    4.2041 H         1 <1>         0.0633
@<TRIPOS>BOND
     1    1    2 1
     2    1   24 1
     3    1   25 1
     4    1   26 1
     5    2    3 1
     6    3    8 ar
     7    3    4 ar
     8    4    5 ar
     9    4   27 1
    10    5    6 ar
    11    5   28 1
    12    6    7 ar
    13    6    9 1
    14    7    8 ar
    15    7   29 1
    16    8   30 1
    17    9   17 1
    18    9   10 2
    19   10   11 1
    20   10   18 1
    21   11   16 1
    22   11   12 1
    23   12   13 2
    24   12   31 1
    25   13   14 1
    26   13   32 1
    27   14   15 2
    28   15   16 1
    29   15   33 1
    30   16   17 2
    31   18   19 1
    32   18   34 1
    33   19   23 1
    34   19   20 1
    35   19   35 1
    36   20   21 1
    37   20   36 1
    38   20   37 1
    39   21   22 1
    40   21   38 1
    41   21   39 1
    42   22   23 1
    43   22   40 1
    44   22   41 1
    45   23   42 1
    46   23   43 1
@<TRIPOS>Similarity
1.0245
@<TRIPOS>ShapeSim
0.6280
@<TRIPOS>PharmSim
0.3965
# END
# Name:		ZINC04597381
# Created and modified by SHAFTS on Mon Jun 23 14:53:19 2014

# 

@<TRIPOS>MOLECULE
ZINC04597381
   43    46     0
SMALL
USER_CHARGE


@<TRIPOS>ATOM
      1 C1         -0.9416    8.9376   -2.2093 C.3       1 <1>        -0.0147
      2 S1          0.6557    8.6763   -3.0286 S.3       1 <1>        -0.2184
      3 C2          1.4209    7.4071   -2.0756 C.ar      1 <1>        -0.0730
      4 C3          2.6853    6.9445   -2.4234 C.ar      1 <1>        -0.0785
      5 C4          3.2862    5.9520   -1.6791 C.ar      1 <1>        -0.0618
      6 C5          2.6247    5.4114   -0.5765 C.ar      1 <1>        -0.0225
      7 C6          1.3539    5.8726   -0.2331 C.ar      1 <1>        -0.0715
      8 C7          0.7594    6.8693   -0.9771 C.ar      1 <1>        -0.0882
      9 C8          3.2686    4.3442    0.2254 C.2       1 <1>         0.0319
     10 C9          3.1553    4.1756    1.5944 C.2       1 <1>         0.0193
     11 N1          3.9000    3.0846    1.9185 N.pl3     1 <1>        -0.2978
     12 C10         4.1675    2.4407    3.1000 C.2       1 <1>        -0.0134
     13 C11         4.9646    1.3536    3.1026 C.2       1 <1>        -0.0214
     14 N2          5.5044    0.8856    1.9725 N.2       1 <1>        -0.3737
     15 C12         5.2815    1.4629    0.8160 C.2       1 <1>         0.0491
     16 C13         4.4560    2.6028    0.7508 C.2       1 <1>         0.0666
     17 N3          4.0639    3.3727   -0.2489 N.2       1 <1>        -0.3461
     18 N4          2.4200    4.9702    2.4715 N.pl3     1 <1>        -0.3802
     19 C14         2.6889    4.6009    3.8677 C.3       1 <1>        -0.0477
     20 C15         1.7292    3.4775    4.3112 C.3       1 <1>        -0.0608
     21 C16         1.3999    3.8206    5.7862 C.3       1 <1>        -0.0714
     22 C17         1.3039    5.3665    5.7650 C.3       1 <1>        -0.0681
     23 C18         2.4190    5.8014    4.7917 C.3       1 <1>        -0.0548
     24 H1         -0.7744    9.2438   -1.1767 H         1 <1>         0.0677
     25 H2         -1.4958    9.7160   -2.7338 H         1 <1>         0.0859
     26 H3         -1.5141    8.0103   -2.2252 H         1 <1>         0.0675
     27 H4          3.1971    7.3635   -3.2772 H         1 <1>         0.1315
     28 H5          4.2682    5.5931   -1.9495 H         1 <1>         0.1431
     29 H6          0.8379    5.4523    0.6176 H         1 <1>         0.1278
     30 H7         -0.2227    7.2299   -0.7090 H         1 <1>         0.1180
     31 H8          3.7412    2.8029    4.0238 H         1 <1>         0.2008
     32 H9          5.1715    0.8510    4.0359 H         1 <1>         0.2064
     33 H10         5.7295    1.0660   -0.0831 H         1 <1>         0.2693
     34 H11         1.4334    4.9171    2.2669 H         1 <1>         0.2862
     35 H12         3.7227    4.2727    3.9743 H         1 <1>         0.0977
     36 H13         0.8230    3.4886    3.7057 H         1 <1>         0.0461
     37 H14         2.2214    2.5072    4.2453 H         1 <1>         0.0464
     38 H15         2.2023    3.4924    6.4469 H         1 <1>         0.0457
     39 H16         0.4496    3.3786    6.0858 H         1 <1>         0.0464
     40 H17         1.4855    5.7735    6.7596 H         1 <1>         0.0467
     41 H18         0.3291    5.6831    5.3943 H         1 <1>         0.0444
     42 H19         3.3216    6.0551    5.3475 H         1 <1>         0.0562
     43 H20         2.0894    6.6582    4.2041 H         1 <1>         0.0633
@<TRIPOS>BOND
     1    1    2 1
     2    1   24 1
     3    1   25 1
     4    1   26 1
     5    2    3 1
     6    3    8 ar
     7    3    4 ar
     8    4    5 ar
     9    4   27 1
    10    5    6 ar
    11    5   28 1
    12    6    7 ar
    13    6    9 1
    14    7    8 ar
    15    7   29 1
    16    8   30 1
    17    9   17 1
    18    9   10 2
    19   10   11 1
    20   10   18 1
    21   11   16 1
    22   11   12 1
    23   12   13 2
    24   12   31 1
    25   13   14 1
    26   13   32 1
    27   14   15 2
    28   15   16 1
    29   15   33 1
    30   16   17 2
    31   18   19 1
    32   18   34 1
    33   19   23 1
    34   19   20 1
    35   19   35 1
    36   20   21 1
    37   20   36 1
    38   20   37 1
    39   21   22 1
    40   21   38 1
    41   21   39 1
    42   22   23 1
    43   22   40 1
    44   22   41 1
    45   23   42 1
    46   23   43 1
@<TRIPOS>Similarity
1.0245
@<TRIPOS>ShapeSim
0.6280
@<TRIPOS>PharmSim
0.3965
# END
# Name:		ZINC04597381
# Created and modified by SHAFTS on Mon Jun 23 14:53:19 2014

# 

@<TRIPOS>MOLECULE
ZINC04597381
   43    46     0
SMALL
USER_CHARGE


@<TRIPOS>ATOM
      1 C1         -0.9416    8.9376   -2.2093 C.3       1 <1>        -0.0147
      2 S1          0.6557    8.6763   -3.0286 S.3       1 <1>        -0.2184
      3 C2          1.4209    7.4071   -2.0756 C.ar      1 <1>        -0.0730
      4 C3          2.6853    6.9445   -2.4234 C.ar      1 <1>        -0.0785
      5 C4          3.2862    5.9520   -1.6791 C.ar      1 <1>        -0.0618
      6 C5          2.6247    5.4114   -0.5765 C.ar      1 <1>        -0.0225
      7 C6          1.3539    5.8726   -0.2331 C.ar      1 <1>        -0.0715
      8 C7          0.7594    6.8693   -0.9771 C.ar      1 <1>        -0.0882
      9 C8          3.2686    4.3442    0.2254 C.2       1 <1>         0.0319
     10 C9          3.1553    4.1756    1.5944 C.2       1 <1>         0.0193
     11 N1          3.9000    3.0846    1.9185 N.pl3     1 <1>        -0.2978
     12 C10         4.1675    2.4407    3.1000 C.2       1 <1>        -0.0134
     13 C11         4.9646    1.3536    3.1026 C.2       1 <1>        -0.0214
     14 N2          5.5044    0.8856    1.9725 N.2       1 <1>        -0.3737
     15 C12         5.2815    1.4629    0.8160 C.2       1 <1>         0.0491
     16 C13         4.4560    2.6028    0.7508 C.2       1 <1>         0.0666
     17 N3          4.0639    3.3727   -0.2489 N.2       1 <1>        -0.3461
     18 N4          2.4200    4.9702    2.4715 N.pl3     1 <1>        -0.3802
     19 C14         2.6889    4.6009    3.8677 C.3       1 <1>        -0.0477
     20 C15         1.7292    3.4775    4.3112 C.3       1 <1>        -0.0608
     21 C16         1.3999    3.8206    5.7862 C.3       1 <1>        -0.0714
     22 C17         1.3039    5.3665    5.7650 C.3       1 <1>        -0.0681
     23 C18         2.4190    5.8014    4.7917 C.3       1 <1>        -0.0548
     24 H1         -0.7744    9.2438   -1.1767 H         1 <1>         0.0677
     25 H2         -1.4958    9.7160   -2.7338 H         1 <1>         0.0859
     26 H3         -1.5141    8.0103   -2.2252 H         1 <1>         0.0675
     27 H4          3.1971    7.3635   -3.2772 H         1 <1>         0.1315
     28 H5          4.2682    5.5931   -1.9495 H         1 <1>         0.1431
     29 H6          0.8379    5.4523    0.6176 H         1 <1>         0.1278
     30 H7         -0.2227    7.2299   -0.7090 H         1 <1>         0.1180
     31 H8          3.7412    2.8029    4.0238 H         1 <1>         0.2008
     32 H9          5.1715    0.8510    4.0359 H         1 <1>         0.2064
     33 H10         5.7295    1.0660   -0.0831 H         1 <1>         0.2693
     34 H11         1.4334    4.9171    2.2669 H         1 <1>         0.2862
     35 H12         3.7227    4.2727    3.9743 H         1 <1>         0.0977
     36 H13         0.8230    3.4886    3.7057 H         1 <1>         0.0461
     37 H14         2.2214    2.5072    4.2453 H         1 <1>         0.0464
     38 H15         2.2023    3.4924    6.4469 H         1 <1>         0.0457
     39 H16         0.4496    3.3786    6.0858 H         1 <1>         0.0464
     40 H17         1.4855    5.7735    6.7596 H         1 <1>         0.0467
     41 H18         0.3291    5.6831    5.3943 H         1 <1>         0.0444
     42 H19         3.3216    6.0551    5.3475 H         1 <1>         0.0562
     43 H20         2.0894    6.6582    4.2041 H         1 <1>         0.0633
@<TRIPOS>BOND
     1    1    2 1
     2    1   24 1
     3    1   25 1
     4    1   26 1
     5    2    3 1
     6    3    8 ar
     7    3    4 ar
     8    4    5 ar
     9    4   27 1
    10    5    6 ar
    11    5   28 1
    12    6    7 ar
    13    6    9 1
    14    7    8 ar
    15    7   29 1
    16    8   30 1
    17    9   17 1
    18    9   10 2
    19   10   11 1
    20   10   18 1
    21   11   16 1
    22   11   12 1
    23   12   13 2
    24   12   31 1
    25   13   14 1
    26   13   32 1
    27   14   15 2
    28   15   16 1
    29   15   33 1
    30   16   17 2
    31   18   19 1
    32   18   34 1
    33   19   23 1
    34   19   20 1
    35   19   35 1
    36   20   21 1
    37   20   36 1
    38   20   37 1
    39   21   22 1
    40   21   38 1
    41   21   39 1
    42   22   23 1
    43   22   40 1
    44   22   41 1
    45   23   42 1
    46   23   43 1
@<TRIPOS>Similarity
1.0245
@<TRIPOS>ShapeSim
0.6280
@<TRIPOS>PharmSim
0.3965
# END
# Name:		ZINC04597381
# Created and modified by SHAFTS on Mon Jun 23 14:53:19 2014

# 

@<TRIPOS>MOLECULE
ZINC04597381
   43    46     0
SMALL
USER_CHARGE


@<TRIPOS>ATOM
      1 C1         -0.9416    8.9376   -2.2093 C.3       1 <1>        -0.0147
      2 S1          0.6557    8.6763   -3.0286 S.3       1 <1>        -0.2184
      3 C2          1.4209    7.4071   -2.0756 C.ar      1 <1>        -0.0730
      4 C3          2.6853    6.9445   -2.4234 C.ar      1 <1>        -0.0785
      5 C4          3.2862    5.9520   -1.6791 C.ar      1 <1>        -0.0618
      6 C5          2.6247    5.4114   -0.5765 C.ar      1 <1>        -0.0225
      7 C6          1.3539    5.8726   -0.2331 C.ar      1 <1>        -0.0715
      8 C7          0.7594    6.8693   -0.9771 C.ar      1 <1>        -0.0882
      9 C8          3.2686    4.3442    0.2254 C.2       1 <1>         0.0319
     10 C9          3.1553    4.1756    1.5944 C.2       1 <1>         0.0193
     11 N1          3.9000    3.0846    1.9185 N.pl3     1 <1>        -0.2978
     12 C10         4.1675    2.4407    3.1000 C.2       1 <1>        -0.0134
     13 C11         4.9646    1.3536    3.1026 C.2       1 <1>        -0.0214
     14 N2          5.5044    0.8856    1.9725 N.2       1 <1>        -0.3737
     15 C12         5.2815    1.4629    0.8160 C.2       1 <1>         0.0491
     16 C13         4.4560    2.6028    0.7508 C.2       1 <1>         0.0666
     17 N3          4.0639    3.3727   -0.2489 N.2       1 <1>        -0.3461
     18 N4          2.4200    4.9702    2.4715 N.pl3     1 <1>        -0.3802
     19 C14         2.6889    4.6009    3.8677 C.3       1 <1>        -0.0477
     20 C15         1.7292    3.4775    4.3112 C.3       1 <1>        -0.0608
     21 C16         1.3999    3.8206    5.7862 C.3       1 <1>        -0.0714
     22 C17         1.3039    5.3665    5.7650 C.3       1 <1>        -0.0681
     23 C18         2.4190    5.8014    4.7917 C.3       1 <1>        -0.0548
     24 H1         -0.7744    9.2438   -1.1767 H         1 <1>         0.0677
     25 H2         -1.4958    9.7160   -2.7338 H         1 <1>         0.0859
     26 H3         -1.5141    8.0103   -2.2252 H         1 <1>         0.0675
     27 H4          3.1971    7.3635   -3.2772 H         1 <1>         0.1315
     28 H5          4.2682    5.5931   -1.9495 H         1 <1>         0.1431
     29 H6          0.8379    5.4523    0.6176 H         1 <1>         0.1278
     30 H7         -0.2227    7.2299   -0.7090 H         1 <1>         0.1180
     31 H8          3.7412    2.8029    4.0238 H         1 <1>         0.2008
     32 H9          5.1715    0.8510    4.0359 H         1 <1>         0.2064
     33 H10         5.7295    1.0660   -0.0831 H         1 <1>         0.2693
     34 H11         1.4334    4.9171    2.2669 H         1 <1>         0.2862
     35 H12         3.7227    4.2727    3.9743 H         1 <1>         0.0977
     36 H13         0.8230    3.4886    3.7057 H         1 <1>         0.0461
     37 H14         2.2214    2.5072    4.2453 H         1 <1>         0.0464
     38 H15         2.2023    3.4924    6.4469 H         1 <1>         0.0457
     39 H16         0.4496    3.3786    6.0858 H         1 <1>         0.0464
     40 H17         1.4855    5.7735    6.7596 H         1 <1>         0.0467
     41 H18         0.3291    5.6831    5.3943 H         1 <1>         0.0444
     42 H19         3.3216    6.0551    5.3475 H         1 <1>         0.0562
     43 H20         2.0894    6.6582    4.2041 H         1 <1>         0.0633
@<TRIPOS>BOND
     1    1    2 1
     2    1   24 1
     3    1   25 1
     4    1   26 1
     5    2    3 1
     6    3    8 ar
     7    3    4 ar
     8    4    5 ar
     9    4   27 1
    10    5    6 ar
    11    5   28 1
    12    6    7 ar
    13    6    9 1
    14    7    8 ar
    15    7   29 1
    16    8   30 1
    17    9   17 1
    18    9   10 2
    19   10   11 1
    20   10   18 1
    21   11   16 1
    22   11   12 1
    23   12   13 2
    24   12   31 1
    25   13   14 1
    26   13   32 1
    27   14   15 2
    28   15   16 1
    29   15   33 1
    30   16   17 2
    31   18   19 1
    32   18   34 1
    33   19   23 1
    34   19   20 1
    35   19   35 1
    36   20   21 1
    37   20   36 1
    38   20   37 1
    39   21   22 1
    40   21   38 1
    41   21   39 1
    42   22   23 1
    43   22   40 1
    44   22   41 1
    45   23   42 1
    46   23   43 1
@<TRIPOS>Similarity
1.0245
@<TRIPOS>ShapeSim
0.6280
@<TRIPOS>PharmSim
0.3965
# END
# Name:		ZINC04597381
# Created and modified by SHAFTS on Mon Jun 23 14:53:19 2014

# 

@<TRIPOS>MOLECULE
ZINC04597381
   43    46     0
SMALL
USER_CHARGE


@<TRIPOS>ATOM
      1 C1         -0.9416    8.9376   -2.2093 C.3       1 <1>        -0.0147
      2 S1          0.6557    8.6763   -3.0286 S.3       1 <1>        -0.2184
      3 C2          1.4209    7.4071   -2.0756 C.ar      1 <1>        -0.0730
      4 C3          2.6853    6.9445   -2.4234 C.ar      1 <1>        -0.0785
      5 C4          3.2862    5.9520   -1.6791 C.ar      1 <1>        -0.0618
      6 C5          2.6247    5.4114   -0.5765 C.ar      1 <1>        -0.0225
      7 C6          1.3539    5.8726   -0.2331 C.ar      1 <1>        -0.0715
      8 C7          0.7594    6.8693   -0.9771 C.ar      1 <1>        -0.0882
      9 C8          3.2686    4.3442    0.2254 C.2       1 <1>         0.0319
     10 C9          3.1553    4.1756    1.5944 C.2       1 <1>         0.0193
     11 N1          3.9000    3.0846    1.9185 N.pl3     1 <1>        -0.2978
     12 C10         4.1675    2.4407    3.1000 C.2       1 <1>        -0.0134
     13 C11         4.9646    1.3536    3.1026 C.2       1 <1>        -0.0214
     14 N2          5.5044    0.8856    1.9725 N.2       1 <1>        -0.3737
     15 C12         5.2815    1.4629    0.8160 C.2       1 <1>         0.0491
     16 C13         4.4560    2.6028    0.7508 C.2       1 <1>         0.0666
     17 N3          4.0639    3.3727   -0.2489 N.2       1 <1>        -0.3461
     18 N4          2.4200    4.9702    2.4715 N.pl3     1 <1>        -0.3802
     19 C14         2.6889    4.6009    3.8677 C.3       1 <1>        -0.0477
     20 C15         1.7292    3.4775    4.3112 C.3       1 <1>        -0.0608
     21 C16         1.3999    3.8206    5.7862 C.3       1 <1>        -0.0714
     22 C17         1.3039    5.3665    5.7650 C.3       1 <1>        -0.0681
     23 C18         2.4190    5.8014    4.7917 C.3       1 <1>        -0.0548
     24 H1         -0.7744    9.2438   -1.1767 H         1 <1>         0.0677
     25 H2         -1.4958    9.7160   -2.7338 H         1 <1>         0.0859
     26 H3         -1.5141    8.0103   -2.2252 H         1 <1>         0.0675
     27 H4          3.1971    7.3635   -3.2772 H         1 <1>         0.1315
     28 H5          4.2682    5.5931   -1.9495 H         1 <1>         0.1431
     29 H6          0.8379    5.4523    0.6176 H         1 <1>         0.1278
     30 H7         -0.2227    7.2299   -0.7090 H         1 <1>         0.1180
     31 H8          3.7412    2.8029    4.0238 H         1 <1>         0.2008
     32 H9          5.1715    0.8510    4.0359 H         1 <1>         0.2064
     33 H10         5.7295    1.0660   -0.0831 H         1 <1>         0.2693
     34 H11         1.4334    4.9171    2.2669 H         1 <1>         0.2862
     35 H12         3.7227    4.2727    3.9743 H         1 <1>         0.0977
     36 H13         0.8230    3.4886    3.7057 H         1 <1>         0.0461
     37 H14         2.2214    2.5072    4.2453 H         1 <1>         0.0464
     38 H15         2.2023    3.4924    6.4469 H         1 <1>         0.0457
     39 H16         0.4496    3.3786    6.0858 H         1 <1>         0.0464
     40 H17         1.4855    5.7735    6.7596 H         1 <1>         0.0467
     41 H18         0.3291    5.6831    5.3943 H         1 <1>         0.0444
     42 H19         3.3216    6.0551    5.3475 H         1 <1>         0.0562
     43 H20         2.0894    6.6582    4.2041 H         1 <1>         0.0633
@<TRIPOS>BOND
     1    1    2 1
     2    1   24 1
     3    1   25 1
     4    1   26 1
     5    2    3 1
     6    3    8 ar
     7    3    4 ar
     8    4    5 ar
     9    4   27 1
    10    5    6 ar
    11    5   28 1
    12    6    7 ar
    13    6    9 1
    14    7    8 ar
    15    7   29 1
    16    8   30 1
    17    9   17 1
    18    9   10 2
    19   10   11 1
    20   10   18 1
    21   11   16 1
    22   11   12 1
    23   12   13 2
    24   12   31 1
    25   13   14 1
    26   13   32 1
    27   14   15 2
    28   15   16 1
    29   15   33 1
    30   16   17 2
    31   18   19 1
    32   18   34 1
    33   19   23 1
    34   19   20 1
    35   19   35 1
    36   20   21 1
    37   20   36 1
    38   20   37 1
    39   21   22 1
    40   21   38 1
    41   21   39 1
    42   22   23 1
    43   22   40 1
    44   22   41 1
    45   23   42 1
    46   23   43 1
@<TRIPOS>Similarity
1.0245
@<TRIPOS>ShapeSim
0.6280
@<TRIPOS>PharmSim
0.3965
# END
# Name:		ZINC04597381
# Created and modified by SHAFTS on Mon Jun 23 14:53:19 2014

# 

@<TRIPOS>MOLECULE
ZINC04597381
   43    46     0
SMALL
USER_CHARGE


@<TRIPOS>ATOM
      1 C1         -0.9416    8.9376   -2.2093 C.3       1 <1>        -0.0147
      2 S1          0.6557    8.6763   -3.0286 S.3       1 <1>        -0.2184
      3 C2          1.4209    7.4071   -2.0756 C.ar      1 <1>        -0.0730
      4 C3          2.6853    6.9445   -2.4234 C.ar      1 <1>        -0.0785
      5 C4          3.2862    5.9520   -1.6791 C.ar      1 <1>        -0.0618
      6 C5          2.6247    5.4114   -0.5765 C.ar      1 <1>        -0.0225
      7 C6          1.3539    5.8726   -0.2331 C.ar      1 <1>        -0.0715
      8 C7          0.7594    6.8693   -0.9771 C.ar      1 <1>        -0.0882
      9 C8          3.2686    4.3442    0.2254 C.2       1 <1>         0.0319
     10 C9          3.1553    4.1756    1.5944 C.2       1 <1>         0.0193
     11 N1          3.9000    3.0846    1.9185 N.pl3     1 <1>        -0.2978
     12 C10         4.1675    2.4407    3.1000 C.2       1 <1>        -0.0134
     13 C11         4.9646    1.3536    3.1026 C.2       1 <1>        -0.0214
     14 N2          5.5044    0.8856    1.9725 N.2       1 <1>        -0.3737
     15 C12         5.2815    1.4629    0.8160 C.2       1 <1>         0.0491
     16 C13         4.4560    2.6028    0.7508 C.2       1 <1>         0.0666
     17 N3          4.0639    3.3727   -0.2489 N.2       1 <1>        -0.3461
     18 N4          2.4200    4.9702    2.4715 N.pl3     1 <1>        -0.3802
     19 C14         2.6889    4.6009    3.8677 C.3       1 <1>        -0.0477
     20 C15         1.7292    3.4775    4.3112 C.3       1 <1>        -0.0608
     21 C16         1.3999    3.8206    5.7862 C.3       1 <1>        -0.0714
     22 C17         1.3039    5.3665    5.7650 C.3       1 <1>        -0.0681
     23 C18         2.4190    5.8014    4.7917 C.3       1 <1>        -0.0548
     24 H1         -0.7744    9.2438   -1.1767 H         1 <1>         0.0677
     25 H2         -1.4958    9.7160   -2.7338 H         1 <1>         0.0859
     26 H3         -1.5141    8.0103   -2.2252 H         1 <1>         0.0675
     27 H4          3.1971    7.3635   -3.2772 H         1 <1>         0.1315
     28 H5          4.2682    5.5931   -1.9495 H         1 <1>         0.1431
     29 H6          0.8379    5.4523    0.6176 H         1 <1>         0.1278
     30 H7         -0.2227    7.2299   -0.7090 H         1 <1>         0.1180
     31 H8          3.7412    2.8029    4.0238 H         1 <1>         0.2008
     32 H9          5.1715    0.8510    4.0359 H         1 <1>         0.2064
     33 H10         5.7295    1.0660   -0.0831 H         1 <1>         0.2693
     34 H11         1.4334    4.9171    2.2669 H         1 <1>         0.2862
     35 H12         3.7227    4.2727    3.9743 H         1 <1>         0.0977
     36 H13         0.8230    3.4886    3.7057 H         1 <1>         0.0461
     37 H14         2.2214    2.5072    4.2453 H         1 <1>         0.0464
     38 H15         2.2023    3.4924    6.4469 H         1 <1>         0.0457
     39 H16         0.4496    3.3786    6.0858 H         1 <1>         0.0464
     40 H17         1.4855    5.7735    6.7596 H         1 <1>         0.0467
     41 H18         0.3291    5.6831    5.3943 H         1 <1>         0.0444
     42 H19         3.3216    6.0551    5.3475 H         1 <1>         0.0562
     43 H20         2.0894    6.6582    4.2041 H         1 <1>         0.0633
@<TRIPOS>BOND
     1    1    2 1
     2    1   24 1
     3    1   25 1
     4    1   26 1
     5    2    3 1
     6    3    8 ar
     7    3    4 ar
     8    4    5 ar
     9    4   27 1
    10    5    6 ar
    11    5   28 1
    12    6    7 ar
    13    6    9 1
    14    7    8 ar
    15    7   29 1
    16    8   30 1
    17    9   17 1
    18    9   10 2
    19   10   11 1
    20   10   18 1
    21   11   16 1
    22   11   12 1
    23   12   13 2
    24   12   31 1
    25   13   14 1
    26   13   32 1
    27   14   15 2
    28   15   16 1
    29   15   33 1
    30   16   17 2
    31   18   19 1
    32   18   34 1
    33   19   23 1
    34   19   20 1
    35   19   35 1
    36   20   21 1
    37   20   36 1
    38   20   37 1
    39   21   22 1
    40   21   38 1
    41   21   39 1
    42   22   23 1
    43   22   40 1
    44   22   41 1
    45   23   42 1
    46   23   43 1
@<TRIPOS>Similarity
1.0245
@<TRIPOS>ShapeSim
0.6280
@<TRIPOS>PharmSim
0.3965
# END
# Name:		ZINC04597381
# Created and modified by SHAFTS on Mon Jun 23 14:53:19 2014

# 

@<TRIPOS>MOLECULE
ZINC04597381
   43    46     0
SMALL
USER_CHARGE


@<TRIPOS>ATOM
      1 C1         -0.9416    8.9376   -2.2093 C.3       1 <1>        -0.0147
      2 S1          0.6557    8.6763   -3.0286 S.3       1 <1>        -0.2184
      3 C2          1.4209    7.4071   -2.0756 C.ar      1 <1>        -0.0730
      4 C3          2.6853    6.9445   -2.4234 C.ar      1 <1>        -0.0785
      5 C4          3.2862    5.9520   -1.6791 C.ar      1 <1>        -0.0618
      6 C5          2.6247    5.4114   -0.5765 C.ar      1 <1>        -0.0225
      7 C6          1.3539    5.8726   -0.2331 C.ar      1 <1>        -0.0715
      8 C7          0.7594    6.8693   -0.9771 C.ar      1 <1>        -0.0882
      9 C8          3.2686    4.3442    0.2254 C.2       1 <1>         0.0319
     10 C9          3.1553    4.1756    1.5944 C.2       1 <1>         0.0193
     11 N1          3.9000    3.0846    1.9185 N.pl3     1 <1>        -0.2978
     12 C10         4.1675    2.4407    3.1000 C.2       1 <1>        -0.0134
     13 C11         4.9646    1.3536    3.1026 C.2       1 <1>        -0.0214
     14 N2          5.5044    0.8856    1.9725 N.2       1 <1>        -0.3737
     15 C12         5.2815    1.4629    0.8160 C.2       1 <1>         0.0491
     16 C13         4.4560    2.6028    0.7508 C.2       1 <1>         0.0666
     17 N3          4.0639    3.3727   -0.2489 N.2       1 <1>        -0.3461
     18 N4          2.4200    4.9702    2.4715 N.pl3     1 <1>        -0.3802
     19 C14         2.6889    4.6009    3.8677 C.3       1 <1>        -0.0477
     20 C15         1.7292    3.4775    4.3112 C.3       1 <1>        -0.0608
     21 C16         1.3999    3.8206    5.7862 C.3       1 <1>        -0.0714
     22 C17         1.3039    5.3665    5.7650 C.3       1 <1>        -0.0681
     23 C18         2.4190    5.8014    4.7917 C.3       1 <1>        -0.0548
     24 H1         -0.7744    9.2438   -1.1767 H         1 <1>         0.0677
     25 H2         -1.4958    9.7160   -2.7338 H         1 <1>         0.0859
     26 H3         -1.5141    8.0103   -2.2252 H         1 <1>         0.0675
     27 H4          3.1971    7.3635   -3.2772 H         1 <1>         0.1315
     28 H5          4.2682    5.5931   -1.9495 H         1 <1>         0.1431
     29 H6          0.8379    5.4523    0.6176 H         1 <1>         0.1278
     30 H7         -0.2227    7.2299   -0.7090 H         1 <1>         0.1180
     31 H8          3.7412    2.8029    4.0238 H         1 <1>         0.2008
     32 H9          5.1715    0.8510    4.0359 H         1 <1>         0.2064
     33 H10         5.7295    1.0660   -0.0831 H         1 <1>         0.2693
     34 H11         1.4334    4.9171    2.2669 H         1 <1>         0.2862
     35 H12         3.7227    4.2727    3.9743 H         1 <1>         0.0977
     36 H13         0.8230    3.4886    3.7057 H         1 <1>         0.0461
     37 H14         2.2214    2.5072    4.2453 H         1 <1>         0.0464
     38 H15         2.2023    3.4924    6.4469 H         1 <1>         0.0457
     39 H16         0.4496    3.3786    6.0858 H         1 <1>         0.0464
     40 H17         1.4855    5.7735    6.7596 H         1 <1>         0.0467
     41 H18         0.3291    5.6831    5.3943 H         1 <1>         0.0444
     42 H19         3.3216    6.0551    5.3475 H         1 <1>         0.0562
     43 H20         2.0894    6.6582    4.2041 H         1 <1>         0.0633
@<TRIPOS>BOND
     1    1    2 1
     2    1   24 1
     3    1   25 1
     4    1   26 1
     5    2    3 1
     6    3    8 ar
     7    3    4 ar
     8    4    5 ar
     9    4   27 1
    10    5    6 ar
    11    5   28 1
    12    6    7 ar
    13    6    9 1
    14    7    8 ar
    15    7   29 1
    16    8   30 1
    17    9   17 1
    18    9   10 2
    19   10   11 1
    20   10   18 1
    21   11   16 1
    22   11   12 1
    23   12   13 2
    24   12   31 1
    25   13   14 1
    26   13   32 1
    27   14   15 2
    28   15   16 1
    29   15   33 1
    30   16   17 2
    31   18   19 1
    32   18   34 1
    33   19   23 1
    34   19   20 1
    35   19   35 1
    36   20   21 1
    37   20   36 1
    38   20   37 1
    39   21   22 1
    40   21   38 1
    41   21   39 1
    42   22   23 1
    43   22   40 1
    44   22   41 1
    45   23   42 1
    46   23   43 1
@<TRIPOS>Similarity
1.0245
@<TRIPOS>ShapeSim
0.6280
@<TRIPOS>PharmSim
0.3965
# END
# Name:		ZINC04597381
# Created and modified by SHAFTS on Mon Jun 23 14:53:19 2014

# 

@<TRIPOS>MOLECULE
ZINC04597381
   43    46     0
SMALL
USER_CHARGE


@<TRIPOS>ATOM
      1 C1         -0.9416    8.9376   -2.2093 C.3       1 <1>        -0.0147
      2 S1          0.6557    8.6763   -3.0286 S.3       1 <1>        -0.2184
      3 C2          1.4209    7.4071   -2.0756 C.ar      1 <1>        -0.0730
      4 C3          2.6853    6.9445   -2.4234 C.ar      1 <1>        -0.0785
      5 C4          3.2862    5.9520   -1.6791 C.ar      1 <1>        -0.0618
      6 C5          2.6247    5.4114   -0.5765 C.ar      1 <1>        -0.0225
      7 C6          1.3539    5.8726   -0.2331 C.ar      1 <1>        -0.0715
      8 C7          0.7594    6.8693   -0.9771 C.ar      1 <1>        -0.0882
      9 C8          3.2686    4.3442    0.2254 C.2       1 <1>         0.0319
     10 C9          3.1553    4.1756    1.5944 C.2       1 <1>         0.0193
     11 N1          3.9000    3.0846    1.9185 N.pl3     1 <1>        -0.2978
     12 C10         4.1675    2.4407    3.1000 C.2       1 <1>        -0.0134
     13 C11         4.9646    1.3536    3.1026 C.2       1 <1>        -0.0214
     14 N2          5.5044    0.8856    1.9725 N.2       1 <1>        -0.3737
     15 C12         5.2815    1.4629    0.8160 C.2       1 <1>         0.0491
     16 C13         4.4560    2.6028    0.7508 C.2       1 <1>         0.0666
     17 N3          4.0639    3.3727   -0.2489 N.2       1 <1>        -0.3461
     18 N4          2.4200    4.9702    2.4715 N.pl3     1 <1>        -0.3802
     19 C14         2.6889    4.6009    3.8677 C.3       1 <1>        -0.0477
     20 C15         1.7292    3.4775    4.3112 C.3       1 <1>        -0.0608
     21 C16         1.3999    3.8206    5.7862 C.3       1 <1>        -0.0714
     22 C17         1.3039    5.3665    5.7650 C.3       1 <1>        -0.0681
     23 C18         2.4190    5.8014    4.7917 C.3       1 <1>        -0.0548
     24 H1         -0.7744    9.2438   -1.1767 H         1 <1>         0.0677
     25 H2         -1.4958    9.7160   -2.7338 H         1 <1>         0.0859
     26 H3         -1.5141    8.0103   -2.2252 H         1 <1>         0.0675
     27 H4          3.1971    7.3635   -3.2772 H         1 <1>         0.1315
     28 H5          4.2682    5.5931   -1.9495 H         1 <1>         0.1431
     29 H6          0.8379    5.4523    0.6176 H         1 <1>         0.1278
     30 H7         -0.2227    7.2299   -0.7090 H         1 <1>         0.1180
     31 H8          3.7412    2.8029    4.0238 H         1 <1>         0.2008
     32 H9          5.1715    0.8510    4.0359 H         1 <1>         0.2064
     33 H10         5.7295    1.0660   -0.0831 H         1 <1>         0.2693
     34 H11         1.4334    4.9171    2.2669 H         1 <1>         0.2862
     35 H12         3.7227    4.2727    3.9743 H         1 <1>         0.0977
     36 H13         0.8230    3.4886    3.7057 H         1 <1>         0.0461
     37 H14         2.2214    2.5072    4.2453 H         1 <1>         0.0464
     38 H15         2.2023    3.4924    6.4469 H         1 <1>         0.0457
     39 H16         0.4496    3.3786    6.0858 H         1 <1>         0.0464
     40 H17         1.4855    5.7735    6.7596 H         1 <1>         0.0467
     41 H18         0.3291    5.6831    5.3943 H         1 <1>         0.0444
     42 H19         3.3216    6.0551    5.3475 H         1 <1>         0.0562
     43 H20         2.0894    6.6582    4.2041 H         1 <1>         0.0633
@<TRIPOS>BOND
     1    1    2 1
     2    1   24 1
     3    1   25 1
     4    1   26 1
     5    2    3 1
     6    3    8 ar
     7    3    4 ar
     8    4    5 ar
     9    4   27 1
    10    5    6 ar
    11    5   28 1
    12    6    7 ar
    13    6    9 1
    14    7    8 ar
    15    7   29 1
    16    8   30 1
    17    9   17 1
    18    9   10 2
    19   10   11 1
    20   10   18 1
    21   11   16 1
    22   11   12 1
    23   12   13 2
    24   12   31 1
    25   13   14 1
    26   13   32 1
    27   14   15 2
    28   15   16 1
    29   15   33 1
    30   16   17 2
    31   18   19 1
    32   18   34 1
    33   19   23 1
    34   19   20 1
    35   19   35 1
    36   20   21 1
    37   20   36 1
    38   20   37 1
    39   21   22 1
    40   21   38 1
    41   21   39 1
    42   22   23 1
    43   22   40 1
    44   22   41 1
    45   23   42 1
    46   23   43 1
@<TRIPOS>Similarity
1.0245
@<TRIPOS>ShapeSim
0.6280
@<TRIPOS>PharmSim
0.3965
# END
# Name:		ZINC04597203
# Created and modified by SHAFTS on Mon Jun 23 14:53:19 2014

# 

@<TRIPOS>MOLECULE
ZINC04597203
   30    32     0
SMALL
USER_CHARGE


@<TRIPOS>ATOM
      1 C1         -0.0194    2.3960   -0.5764 C.ar      1 <1>        -0.0479
      2 C2         -0.2077    2.0800   -1.9054 C.ar      1 <1>        -0.0546
      3 C3          0.6488    1.1879   -2.5328 C.ar      1 <1>        -0.0253
      4 C4          1.7065    0.6047   -1.8154 C.ar      1 <1>        -0.0008
      5 C5          1.8883    0.9303   -0.4698 C.ar      1 <1>        -0.0204
      6 C6          1.0263    1.8221    0.1423 C.ar      1 <1>        -0.0299
      7 N1          1.2064    2.1504    1.4919 N.am      1 <1>        -0.2939
      8 C7          0.9380    3.3986    1.9235 C.2       1 <1>         0.1533
      9 O1          0.4608    4.2164    1.1603 O.2       1 <1>        -0.4433
     10 C8          1.2229    3.7725    3.3206 C.ar      1 <1>         0.1677
     11 C9          2.4740    4.2957    3.6671 C.ar      1 <1>         0.1985
     12 C10         2.7323    4.6507    4.9783 C.ar      1 <1>         0.2174
     13 C11         1.7592    4.4772    5.9516 C.ar      1 <1>         0.2214
     14 C12         0.5192    3.9533    5.6161 C.ar      1 <1>         0.2171
     15 C13         0.2455    3.6005    4.3076 C.ar      1 <1>         0.1979
     16 F1         -0.9625    3.0905    3.9825 F         1 <1>        -0.2152
     17 F2         -0.4231    3.7880    6.5700 F         1 <1>        -0.2243
     18 F3          2.0201    4.8204    7.2320 F         1 <1>        -0.2139
     19 F4          3.9373    5.1616    5.3133 F         1 <1>        -0.2241
     20 F5          3.4249    4.4593    2.7215 F         1 <1>        -0.2144
     21 N2          2.3644   -0.2187   -2.6737 N.2       1 <1>        -0.3348
     22 C14         1.7957   -0.1725   -3.8503 C.2       1 <1>         0.0895
     23 N3          0.7297    0.6773   -3.8189 N.pl3     1 <1>        -0.3050
     24 H1          0.1199    0.8921   -4.5817 H         1 <1>         0.3497
     25 O2          2.2014   -0.8693   -4.9366 O.3       1 <1>        -0.3530
     26 H2         -0.6874    3.0914   -0.0900 H         1 <1>         0.1541
     27 H3         -1.0206    2.5281   -2.4576 H         1 <1>         0.1400
     28 H4          2.6986    0.4879    0.0905 H         1 <1>         0.1561
     29 H5          1.5244    1.4792    2.1159 H         1 <1>         0.3338
     30 H6          2.8464   -0.4022   -5.4851 H         1 <1>         0.4045
@<TRIPOS>BOND
     1    1    6 ar
     2    1    2 ar
     3    1   26 1
     4    2    3 ar
     5    2   27 1
     6    3   23 1
     7    3    4 ar
     8    4    5 ar
     9    4   21 1
    10    5    6 ar
    11    5   28 1
    12    6    7 1
    13    7    8 am
    14    7   29 1
    15    8    9 2
    16    8   10 1
    17   10   15 ar
    18   10   11 ar
    19   11   12 ar
    20   11   20 1
    21   12   13 ar
    22   12   19 1
    23   13   14 ar
    24   13   18 1
    25   14   15 ar
    26   14   17 1
    27   15   16 1
    28   21   22 2
    29   22   23 1
    30   22   25 1
    31   23   24 1
    32   25   30 1
@<TRIPOS>Similarity
0.8965
@<TRIPOS>ShapeSim
0.5779
@<TRIPOS>PharmSim
0.3186
# END
# Name:		ZINC04597203
# Created and modified by SHAFTS on Mon Jun 23 14:53:19 2014

# 

@<TRIPOS>MOLECULE
ZINC04597203
   30    32     0
SMALL
USER_CHARGE


@<TRIPOS>ATOM
      1 C1         -0.0194    2.3960   -0.5764 C.ar      1 <1>        -0.0479
      2 C2         -0.2077    2.0800   -1.9054 C.ar      1 <1>        -0.0546
      3 C3          0.6488    1.1879   -2.5328 C.ar      1 <1>        -0.0253
      4 C4          1.7065    0.6047   -1.8154 C.ar      1 <1>        -0.0008
      5 C5          1.8883    0.9303   -0.4698 C.ar      1 <1>        -0.0204
      6 C6          1.0263    1.8221    0.1423 C.ar      1 <1>        -0.0299
      7 N1          1.2064    2.1504    1.4919 N.am      1 <1>        -0.2939
      8 C7          0.9380    3.3986    1.9235 C.2       1 <1>         0.1533
      9 O1          0.4608    4.2164    1.1603 O.2       1 <1>        -0.4433
     10 C8          1.2229    3.7725    3.3206 C.ar      1 <1>         0.1677
     11 C9          2.4740    4.2957    3.6671 C.ar      1 <1>         0.1985
     12 C10         2.7323    4.6507    4.9783 C.ar      1 <1>         0.2174
     13 C11         1.7592    4.4772    5.9516 C.ar      1 <1>         0.2214
     14 C12         0.5192    3.9533    5.6161 C.ar      1 <1>         0.2171
     15 C13         0.2455    3.6005    4.3076 C.ar      1 <1>         0.1979
     16 F1         -0.9625    3.0905    3.9825 F         1 <1>        -0.2152
     17 F2         -0.4231    3.7880    6.5700 F         1 <1>        -0.2243
     18 F3          2.0201    4.8204    7.2320 F         1 <1>        -0.2139
     19 F4          3.9373    5.1616    5.3133 F         1 <1>        -0.2241
     20 F5          3.4249    4.4593    2.7215 F         1 <1>        -0.2144
     21 N2          2.3644   -0.2187   -2.6737 N.2       1 <1>        -0.3348
     22 C14         1.7957   -0.1725   -3.8503 C.2       1 <1>         0.0895
     23 N3          0.7297    0.6773   -3.8189 N.pl3     1 <1>        -0.3050
     24 H1          0.1199    0.8921   -4.5817 H         1 <1>         0.3497
     25 O2          2.2014   -0.8693   -4.9366 O.3       1 <1>        -0.3530
     26 H2         -0.6874    3.0914   -0.0900 H         1 <1>         0.1541
     27 H3         -1.0206    2.5281   -2.4576 H         1 <1>         0.1400
     28 H4          2.6986    0.4879    0.0905 H         1 <1>         0.1561
     29 H5          1.5244    1.4792    2.1159 H         1 <1>         0.3338
     30 H6          2.8464   -0.4022   -5.4851 H         1 <1>         0.4045
@<TRIPOS>BOND
     1    1    6 ar
     2    1    2 ar
     3    1   26 1
     4    2    3 ar
     5    2   27 1
     6    3   23 1
     7    3    4 ar
     8    4    5 ar
     9    4   21 1
    10    5    6 ar
    11    5   28 1
    12    6    7 1
    13    7    8 am
    14    7   29 1
    15    8    9 2
    16    8   10 1
    17   10   15 ar
    18   10   11 ar
    19   11   12 ar
    20   11   20 1
    21   12   13 ar
    22   12   19 1
    23   13   14 ar
    24   13   18 1
    25   14   15 ar
    26   14   17 1
    27   15   16 1
    28   21   22 2
    29   22   23 1
    30   22   25 1
    31   23   24 1
    32   25   30 1
@<TRIPOS>Similarity
0.8965
@<TRIPOS>ShapeSim
0.5779
@<TRIPOS>PharmSim
0.3186
# END
# Name:		ZINC04597203
# Created and modified by SHAFTS on Mon Jun 23 14:53:19 2014

# 

@<TRIPOS>MOLECULE
ZINC04597203
   30    32     0
SMALL
USER_CHARGE


@<TRIPOS>ATOM
      1 C1         -0.0194    2.3960   -0.5764 C.ar      1 <1>        -0.0479
      2 C2         -0.2077    2.0800   -1.9054 C.ar      1 <1>        -0.0546
      3 C3          0.6488    1.1879   -2.5328 C.ar      1 <1>        -0.0253
      4 C4          1.7065    0.6047   -1.8154 C.ar      1 <1>        -0.0008
      5 C5          1.8883    0.9303   -0.4698 C.ar      1 <1>        -0.0204
      6 C6          1.0263    1.8221    0.1423 C.ar      1 <1>        -0.0299
      7 N1          1.2064    2.1504    1.4919 N.am      1 <1>        -0.2939
      8 C7          0.9380    3.3986    1.9235 C.2       1 <1>         0.1533
      9 O1          0.4608    4.2164    1.1603 O.2       1 <1>        -0.4433
     10 C8          1.2229    3.7725    3.3206 C.ar      1 <1>         0.1677
     11 C9          2.4740    4.2957    3.6671 C.ar      1 <1>         0.1985
     12 C10         2.7323    4.6507    4.9783 C.ar      1 <1>         0.2174
     13 C11         1.7592    4.4772    5.9516 C.ar      1 <1>         0.2214
     14 C12         0.5192    3.9533    5.6161 C.ar      1 <1>         0.2171
     15 C13         0.2455    3.6005    4.3076 C.ar      1 <1>         0.1979
     16 F1         -0.9625    3.0905    3.9825 F         1 <1>        -0.2152
     17 F2         -0.4231    3.7880    6.5700 F         1 <1>        -0.2243
     18 F3          2.0201    4.8204    7.2320 F         1 <1>        -0.2139
     19 F4          3.9373    5.1616    5.3133 F         1 <1>        -0.2241
     20 F5          3.4249    4.4593    2.7215 F         1 <1>        -0.2144
     21 N2          2.3644   -0.2187   -2.6737 N.2       1 <1>        -0.3348
     22 C14         1.7957   -0.1725   -3.8503 C.2       1 <1>         0.0895
     23 N3          0.7297    0.6773   -3.8189 N.pl3     1 <1>        -0.3050
     24 H1          0.1199    0.8921   -4.5817 H         1 <1>         0.3497
     25 O2          2.2014   -0.8693   -4.9366 O.3       1 <1>        -0.3530
     26 H2         -0.6874    3.0914   -0.0900 H         1 <1>         0.1541
     27 H3         -1.0206    2.5281   -2.4576 H         1 <1>         0.1400
     28 H4          2.6986    0.4879    0.0905 H         1 <1>         0.1561
     29 H5          1.5244    1.4792    2.1159 H         1 <1>         0.3338
     30 H6          2.8464   -0.4022   -5.4851 H         1 <1>         0.4045
@<TRIPOS>BOND
     1    1    6 ar
     2    1    2 ar
     3    1   26 1
     4    2    3 ar
     5    2   27 1
     6    3   23 1
     7    3    4 ar
     8    4    5 ar
     9    4   21 1
    10    5    6 ar
    11    5   28 1
    12    6    7 1
    13    7    8 am
    14    7   29 1
    15    8    9 2
    16    8   10 1
    17   10   15 ar
    18   10   11 ar
    19   11   12 ar
    20   11   20 1
    21   12   13 ar
    22   12   19 1
    23   13   14 ar
    24   13   18 1
    25   14   15 ar
    26   14   17 1
    27   15   16 1
    28   21   22 2
    29   22   23 1
    30   22   25 1
    31   23   24 1
    32   25   30 1
@<TRIPOS>Similarity
0.8965
@<TRIPOS>ShapeSim
0.5779
@<TRIPOS>PharmSim
0.3186
# END
# Name:		ZINC04597203
# Created and modified by SHAFTS on Mon Jun 23 14:53:19 2014

# 

@<TRIPOS>MOLECULE
ZINC04597203
   30    32     0
SMALL
USER_CHARGE


@<TRIPOS>ATOM
      1 C1         -0.0194    2.3960   -0.5764 C.ar      1 <1>        -0.0479
      2 C2         -0.2077    2.0800   -1.9054 C.ar      1 <1>        -0.0546
      3 C3          0.6488    1.1879   -2.5328 C.ar      1 <1>        -0.0253
      4 C4          1.7065    0.6047   -1.8154 C.ar      1 <1>        -0.0008
      5 C5          1.8883    0.9303   -0.4698 C.ar      1 <1>        -0.0204
      6 C6          1.0263    1.8221    0.1423 C.ar      1 <1>        -0.0299
      7 N1          1.2064    2.1504    1.4919 N.am      1 <1>        -0.2939
      8 C7          0.9380    3.3986    1.9235 C.2       1 <1>         0.1533
      9 O1          0.4608    4.2164    1.1603 O.2       1 <1>        -0.4433
     10 C8          1.2229    3.7725    3.3206 C.ar      1 <1>         0.1677
     11 C9          2.4740    4.2957    3.6671 C.ar      1 <1>         0.1985
     12 C10         2.7323    4.6507    4.9783 C.ar      1 <1>         0.2174
     13 C11         1.7592    4.4772    5.9516 C.ar      1 <1>         0.2214
     14 C12         0.5192    3.9533    5.6161 C.ar      1 <1>         0.2171
     15 C13         0.2455    3.6005    4.3076 C.ar      1 <1>         0.1979
     16 F1         -0.9625    3.0905    3.9825 F         1 <1>        -0.2152
     17 F2         -0.4231    3.7880    6.5700 F         1 <1>        -0.2243
     18 F3          2.0201    4.8204    7.2320 F         1 <1>        -0.2139
     19 F4          3.9373    5.1616    5.3133 F         1 <1>        -0.2241
     20 F5          3.4249    4.4593    2.7215 F         1 <1>        -0.2144
     21 N2          2.3644   -0.2187   -2.6737 N.2       1 <1>        -0.3348
     22 C14         1.7957   -0.1725   -3.8503 C.2       1 <1>         0.0895
     23 N3          0.7297    0.6773   -3.8189 N.pl3     1 <1>        -0.3050
     24 H1          0.1199    0.8921   -4.5817 H         1 <1>         0.3497
     25 O2          2.2014   -0.8693   -4.9366 O.3       1 <1>        -0.3530
     26 H2         -0.6874    3.0914   -0.0900 H         1 <1>         0.1541
     27 H3         -1.0206    2.5281   -2.4576 H         1 <1>         0.1400
     28 H4          2.6986    0.4879    0.0905 H         1 <1>         0.1561
     29 H5          1.5244    1.4792    2.1159 H         1 <1>         0.3338
     30 H6          2.8464   -0.4022   -5.4851 H         1 <1>         0.4045
@<TRIPOS>BOND
     1    1    6 ar
     2    1    2 ar
     3    1   26 1
     4    2    3 ar
     5    2   27 1
     6    3   23 1
     7    3    4 ar
     8    4    5 ar
     9    4   21 1
    10    5    6 ar
    11    5   28 1
    12    6    7 1
    13    7    8 am
    14    7   29 1
    15    8    9 2
    16    8   10 1
    17   10   15 ar
    18   10   11 ar
    19   11   12 ar
    20   11   20 1
    21   12   13 ar
    22   12   19 1
    23   13   14 ar
    24   13   18 1
    25   14   15 ar
    26   14   17 1
    27   15   16 1
    28   21   22 2
    29   22   23 1
    30   22   25 1
    31   23   24 1
    32   25   30 1
@<TRIPOS>Similarity
0.8965
@<TRIPOS>ShapeSim
0.5779
@<TRIPOS>PharmSim
0.3186
# END
# Name:		ZINC04597203
# Created and modified by SHAFTS on Mon Jun 23 14:53:19 2014

# 

@<TRIPOS>MOLECULE
ZINC04597203
   30    32     0
SMALL
USER_CHARGE


@<TRIPOS>ATOM
      1 C1         -0.0194    2.3960   -0.5764 C.ar      1 <1>        -0.0479
      2 C2         -0.2077    2.0800   -1.9054 C.ar      1 <1>        -0.0546
      3 C3          0.6488    1.1879   -2.5328 C.ar      1 <1>        -0.0253
      4 C4          1.7065    0.6047   -1.8154 C.ar      1 <1>        -0.0008
      5 C5          1.8883    0.9303   -0.4698 C.ar      1 <1>        -0.0204
      6 C6          1.0263    1.8221    0.1423 C.ar      1 <1>        -0.0299
      7 N1          1.2064    2.1504    1.4919 N.am      1 <1>        -0.2939
      8 C7          0.9380    3.3986    1.9235 C.2       1 <1>         0.1533
      9 O1          0.4608    4.2164    1.1603 O.2       1 <1>        -0.4433
     10 C8          1.2229    3.7725    3.3206 C.ar      1 <1>         0.1677
     11 C9          2.4740    4.2957    3.6671 C.ar      1 <1>         0.1985
     12 C10         2.7323    4.6507    4.9783 C.ar      1 <1>         0.2174
     13 C11         1.7592    4.4772    5.9516 C.ar      1 <1>         0.2214
     14 C12         0.5192    3.9533    5.6161 C.ar      1 <1>         0.2171
     15 C13         0.2455    3.6005    4.3076 C.ar      1 <1>         0.1979
     16 F1         -0.9625    3.0905    3.9825 F         1 <1>        -0.2152
     17 F2         -0.4231    3.7880    6.5700 F         1 <1>        -0.2243
     18 F3          2.0201    4.8204    7.2320 F         1 <1>        -0.2139
     19 F4          3.9373    5.1616    5.3133 F         1 <1>        -0.2241
     20 F5          3.4249    4.4593    2.7215 F         1 <1>        -0.2144
     21 N2          2.3644   -0.2187   -2.6737 N.2       1 <1>        -0.3348
     22 C14         1.7957   -0.1725   -3.8503 C.2       1 <1>         0.0895
     23 N3          0.7297    0.6773   -3.8189 N.pl3     1 <1>        -0.3050
     24 H1          0.1199    0.8921   -4.5817 H         1 <1>         0.3497
     25 O2          2.2014   -0.8693   -4.9366 O.3       1 <1>        -0.3530
     26 H2         -0.6874    3.0914   -0.0900 H         1 <1>         0.1541
     27 H3         -1.0206    2.5281   -2.4576 H         1 <1>         0.1400
     28 H4          2.6986    0.4879    0.0905 H         1 <1>         0.1561
     29 H5          1.5244    1.4792    2.1159 H         1 <1>         0.3338
     30 H6          2.8464   -0.4022   -5.4851 H         1 <1>         0.4045
@<TRIPOS>BOND
     1    1    6 ar
     2    1    2 ar
     3    1   26 1
     4    2    3 ar
     5    2   27 1
     6    3   23 1
     7    3    4 ar
     8    4    5 ar
     9    4   21 1
    10    5    6 ar
    11    5   28 1
    12    6    7 1
    13    7    8 am
    14    7   29 1
    15    8    9 2
    16    8   10 1
    17   10   15 ar
    18   10   11 ar
    19   11   12 ar
    20   11   20 1
    21   12   13 ar
    22   12   19 1
    23   13   14 ar
    24   13   18 1
    25   14   15 ar
    26   14   17 1
    27   15   16 1
    28   21   22 2
    29   22   23 1
    30   22   25 1
    31   23   24 1
    32   25   30 1
@<TRIPOS>Similarity
0.8965
@<TRIPOS>ShapeSim
0.5779
@<TRIPOS>PharmSim
0.3186
# END
# Name:		ZINC04597203
# Created and modified by SHAFTS on Mon Jun 23 14:53:19 2014

# 

@<TRIPOS>MOLECULE
ZINC04597203
   30    32     0
SMALL
USER_CHARGE


@<TRIPOS>ATOM
      1 C1         -0.0194    2.3960   -0.5764 C.ar      1 <1>        -0.0479
      2 C2         -0.2077    2.0800   -1.9054 C.ar      1 <1>        -0.0546
      3 C3          0.6488    1.1879   -2.5328 C.ar      1 <1>        -0.0253
      4 C4          1.7065    0.6047   -1.8154 C.ar      1 <1>        -0.0008
      5 C5          1.8883    0.9303   -0.4698 C.ar      1 <1>        -0.0204
      6 C6          1.0263    1.8221    0.1423 C.ar      1 <1>        -0.0299
      7 N1          1.2064    2.1504    1.4919 N.am      1 <1>        -0.2939
      8 C7          0.9380    3.3986    1.9235 C.2       1 <1>         0.1533
      9 O1          0.4608    4.2164    1.1603 O.2       1 <1>        -0.4433
     10 C8          1.2229    3.7725    3.3206 C.ar      1 <1>         0.1677
     11 C9          2.4740    4.2957    3.6671 C.ar      1 <1>         0.1985
     12 C10         2.7323    4.6507    4.9783 C.ar      1 <1>         0.2174
     13 C11         1.7592    4.4772    5.9516 C.ar      1 <1>         0.2214
     14 C12         0.5192    3.9533    5.6161 C.ar      1 <1>         0.2171
     15 C13         0.2455    3.6005    4.3076 C.ar      1 <1>         0.1979
     16 F1         -0.9625    3.0905    3.9825 F         1 <1>        -0.2152
     17 F2         -0.4231    3.7880    6.5700 F         1 <1>        -0.2243
     18 F3          2.0201    4.8204    7.2320 F         1 <1>        -0.2139
     19 F4          3.9373    5.1616    5.3133 F         1 <1>        -0.2241
     20 F5          3.4249    4.4593    2.7215 F         1 <1>        -0.2144
     21 N2          2.3644   -0.2187   -2.6737 N.2       1 <1>        -0.3348
     22 C14         1.7957   -0.1725   -3.8503 C.2       1 <1>         0.0895
     23 N3          0.7297    0.6773   -3.8189 N.pl3     1 <1>        -0.3050
     24 H1          0.1199    0.8921   -4.5817 H         1 <1>         0.3497
     25 O2          2.2014   -0.8693   -4.9366 O.3       1 <1>        -0.3530
     26 H2         -0.6874    3.0914   -0.0900 H         1 <1>         0.1541
     27 H3         -1.0206    2.5281   -2.4576 H         1 <1>         0.1400
     28 H4          2.6986    0.4879    0.0905 H         1 <1>         0.1561
     29 H5          1.5244    1.4792    2.1159 H         1 <1>         0.3338
     30 H6          2.8464   -0.4022   -5.4851 H         1 <1>         0.4045
@<TRIPOS>BOND
     1    1    6 ar
     2    1    2 ar
     3    1   26 1
     4    2    3 ar
     5    2   27 1
     6    3   23 1
     7    3    4 ar
     8    4    5 ar
     9    4   21 1
    10    5    6 ar
    11    5   28 1
    12    6    7 1
    13    7    8 am
    14    7   29 1
    15    8    9 2
    16    8   10 1
    17   10   15 ar
    18   10   11 ar
    19   11   12 ar
    20   11   20 1
    21   12   13 ar
    22   12   19 1
    23   13   14 ar
    24   13   18 1
    25   14   15 ar
    26   14   17 1
    27   15   16 1
    28   21   22 2
    29   22   23 1
    30   22   25 1
    31   23   24 1
    32   25   30 1
@<TRIPOS>Similarity
0.8965
@<TRIPOS>ShapeSim
0.5779
@<TRIPOS>PharmSim
0.3186
# END
# Name:		ZINC04597203
# Created and modified by SHAFTS on Mon Jun 23 14:53:19 2014

# 

@<TRIPOS>MOLECULE
ZINC04597203
   30    32     0
SMALL
USER_CHARGE


@<TRIPOS>ATOM
      1 C1         -0.0194    2.3960   -0.5764 C.ar      1 <1>        -0.0479
      2 C2         -0.2077    2.0800   -1.9054 C.ar      1 <1>        -0.0546
      3 C3          0.6488    1.1879   -2.5328 C.ar      1 <1>        -0.0253
      4 C4          1.7065    0.6047   -1.8154 C.ar      1 <1>        -0.0008
      5 C5          1.8883    0.9303   -0.4698 C.ar      1 <1>        -0.0204
      6 C6          1.0263    1.8221    0.1423 C.ar      1 <1>        -0.0299
      7 N1          1.2064    2.1504    1.4919 N.am      1 <1>        -0.2939
      8 C7          0.9380    3.3986    1.9235 C.2       1 <1>         0.1533
      9 O1          0.4608    4.2164    1.1603 O.2       1 <1>        -0.4433
     10 C8          1.2229    3.7725    3.3206 C.ar      1 <1>         0.1677
     11 C9          2.4740    4.2957    3.6671 C.ar      1 <1>         0.1985
     12 C10         2.7323    4.6507    4.9783 C.ar      1 <1>         0.2174
     13 C11         1.7592    4.4772    5.9516 C.ar      1 <1>         0.2214
     14 C12         0.5192    3.9533    5.6161 C.ar      1 <1>         0.2171
     15 C13         0.2455    3.6005    4.3076 C.ar      1 <1>         0.1979
     16 F1         -0.9625    3.0905    3.9825 F         1 <1>        -0.2152
     17 F2         -0.4231    3.7880    6.5700 F         1 <1>        -0.2243
     18 F3          2.0201    4.8204    7.2320 F         1 <1>        -0.2139
     19 F4          3.9373    5.1616    5.3133 F         1 <1>        -0.2241
     20 F5          3.4249    4.4593    2.7215 F         1 <1>        -0.2144
     21 N2          2.3644   -0.2187   -2.6737 N.2       1 <1>        -0.3348
     22 C14         1.7957   -0.1725   -3.8503 C.2       1 <1>         0.0895
     23 N3          0.7297    0.6773   -3.8189 N.pl3     1 <1>        -0.3050
     24 H1          0.1199    0.8921   -4.5817 H         1 <1>         0.3497
     25 O2          2.2014   -0.8693   -4.9366 O.3       1 <1>        -0.3530
     26 H2         -0.6874    3.0914   -0.0900 H         1 <1>         0.1541
     27 H3         -1.0206    2.5281   -2.4576 H         1 <1>         0.1400
     28 H4          2.6986    0.4879    0.0905 H         1 <1>         0.1561
     29 H5          1.5244    1.4792    2.1159 H         1 <1>         0.3338
     30 H6          2.8464   -0.4022   -5.4851 H         1 <1>         0.4045
@<TRIPOS>BOND
     1    1    6 ar
     2    1    2 ar
     3    1   26 1
     4    2    3 ar
     5    2   27 1
     6    3   23 1
     7    3    4 ar
     8    4    5 ar
     9    4   21 1
    10    5    6 ar
    11    5   28 1
    12    6    7 1
    13    7    8 am
    14    7   29 1
    15    8    9 2
    16    8   10 1
    17   10   15 ar
    18   10   11 ar
    19   11   12 ar
    20   11   20 1
    21   12   13 ar
    22   12   19 1
    23   13   14 ar
    24   13   18 1
    25   14   15 ar
    26   14   17 1
    27   15   16 1
    28   21   22 2
    29   22   23 1
    30   22   25 1
    31   23   24 1
    32   25   30 1
@<TRIPOS>Similarity
0.8965
@<TRIPOS>ShapeSim
0.5779
@<TRIPOS>PharmSim
0.3186
# END
# Name:		ZINC04597203
# Created and modified by SHAFTS on Mon Jun 23 14:53:19 2014

# 

@<TRIPOS>MOLECULE
ZINC04597203
   30    32     0
SMALL
USER_CHARGE


@<TRIPOS>ATOM
      1 C1         -0.0194    2.3960   -0.5764 C.ar      1 <1>        -0.0479
      2 C2         -0.2077    2.0800   -1.9054 C.ar      1 <1>        -0.0546
      3 C3          0.6488    1.1879   -2.5328 C.ar      1 <1>        -0.0253
      4 C4          1.7065    0.6047   -1.8154 C.ar      1 <1>        -0.0008
      5 C5          1.8883    0.9303   -0.4698 C.ar      1 <1>        -0.0204
      6 C6          1.0263    1.8221    0.1423 C.ar      1 <1>        -0.0299
      7 N1          1.2064    2.1504    1.4919 N.am      1 <1>        -0.2939
      8 C7          0.9380    3.3986    1.9235 C.2       1 <1>         0.1533
      9 O1          0.4608    4.2164    1.1603 O.2       1 <1>        -0.4433
     10 C8          1.2229    3.7725    3.3206 C.ar      1 <1>         0.1677
     11 C9          2.4740    4.2957    3.6671 C.ar      1 <1>         0.1985
     12 C10         2.7323    4.6507    4.9783 C.ar      1 <1>         0.2174
     13 C11         1.7592    4.4772    5.9516 C.ar      1 <1>         0.2214
     14 C12         0.5192    3.9533    5.6161 C.ar      1 <1>         0.2171
     15 C13         0.2455    3.6005    4.3076 C.ar      1 <1>         0.1979
     16 F1         -0.9625    3.0905    3.9825 F         1 <1>        -0.2152
     17 F2         -0.4231    3.7880    6.5700 F         1 <1>        -0.2243
     18 F3          2.0201    4.8204    7.2320 F         1 <1>        -0.2139
     19 F4          3.9373    5.1616    5.3133 F         1 <1>        -0.2241
     20 F5          3.4249    4.4593    2.7215 F         1 <1>        -0.2144
     21 N2          2.3644   -0.2187   -2.6737 N.2       1 <1>        -0.3348
     22 C14         1.7957   -0.1725   -3.8503 C.2       1 <1>         0.0895
     23 N3          0.7297    0.6773   -3.8189 N.pl3     1 <1>        -0.3050
     24 H1          0.1199    0.8921   -4.5817 H         1 <1>         0.3497
     25 O2          2.2014   -0.8693   -4.9366 O.3       1 <1>        -0.3530
     26 H2         -0.6874    3.0914   -0.0900 H         1 <1>         0.1541
     27 H3         -1.0206    2.5281   -2.4576 H         1 <1>         0.1400
     28 H4          2.6986    0.4879    0.0905 H         1 <1>         0.1561
     29 H5          1.5244    1.4792    2.1159 H         1 <1>         0.3338
     30 H6          2.8464   -0.4022   -5.4851 H         1 <1>         0.4045
@<TRIPOS>BOND
     1    1    6 ar
     2    1    2 ar
     3    1   26 1
     4    2    3 ar
     5    2   27 1
     6    3   23 1
     7    3    4 ar
     8    4    5 ar
     9    4   21 1
    10    5    6 ar
    11    5   28 1
    12    6    7 1
    13    7    8 am
    14    7   29 1
    15    8    9 2
    16    8   10 1
    17   10   15 ar
    18   10   11 ar
    19   11   12 ar
    20   11   20 1
    21   12   13 ar
    22   12   19 1
    23   13   14 ar
    24   13   18 1
    25   14   15 ar
    26   14   17 1
    27   15   16 1
    28   21   22 2
    29   22   23 1
    30   22   25 1
    31   23   24 1
    32   25   30 1
@<TRIPOS>Similarity
0.8965
@<TRIPOS>ShapeSim
0.5779
@<TRIPOS>PharmSim
0.3186
# END
# Name:		ZINC04597203
# Created and modified by SHAFTS on Mon Jun 23 14:53:19 2014

# 

@<TRIPOS>MOLECULE
ZINC04597203
   30    32     0
SMALL
USER_CHARGE


@<TRIPOS>ATOM
      1 C1         -0.0194    2.3960   -0.5764 C.ar      1 <1>        -0.0479
      2 C2         -0.2077    2.0800   -1.9054 C.ar      1 <1>        -0.0546
      3 C3          0.6488    1.1879   -2.5328 C.ar      1 <1>        -0.0253
      4 C4          1.7065    0.6047   -1.8154 C.ar      1 <1>        -0.0008
      5 C5          1.8883    0.9303   -0.4698 C.ar      1 <1>        -0.0204
      6 C6          1.0263    1.8221    0.1423 C.ar      1 <1>        -0.0299
      7 N1          1.2064    2.1504    1.4919 N.am      1 <1>        -0.2939
      8 C7          0.9380    3.3986    1.9235 C.2       1 <1>         0.1533
      9 O1          0.4608    4.2164    1.1603 O.2       1 <1>        -0.4433
     10 C8          1.2229    3.7725    3.3206 C.ar      1 <1>         0.1677
     11 C9          2.4740    4.2957    3.6671 C.ar      1 <1>         0.1985
     12 C10         2.7323    4.6507    4.9783 C.ar      1 <1>         0.2174
     13 C11         1.7592    4.4772    5.9516 C.ar      1 <1>         0.2214
     14 C12         0.5192    3.9533    5.6161 C.ar      1 <1>         0.2171
     15 C13         0.2455    3.6005    4.3076 C.ar      1 <1>         0.1979
     16 F1         -0.9625    3.0905    3.9825 F         1 <1>        -0.2152
     17 F2         -0.4231    3.7880    6.5700 F         1 <1>        -0.2243
     18 F3          2.0201    4.8204    7.2320 F         1 <1>        -0.2139
     19 F4          3.9373    5.1616    5.3133 F         1 <1>        -0.2241
     20 F5          3.4249    4.4593    2.7215 F         1 <1>        -0.2144
     21 N2          2.3644   -0.2187   -2.6737 N.2       1 <1>        -0.3348
     22 C14         1.7957   -0.1725   -3.8503 C.2       1 <1>         0.0895
     23 N3          0.7297    0.6773   -3.8189 N.pl3     1 <1>        -0.3050
     24 H1          0.1199    0.8921   -4.5817 H         1 <1>         0.3497
     25 O2          2.2014   -0.8693   -4.9366 O.3       1 <1>        -0.3530
     26 H2         -0.6874    3.0914   -0.0900 H         1 <1>         0.1541
     27 H3         -1.0206    2.5281   -2.4576 H         1 <1>         0.1400
     28 H4          2.6986    0.4879    0.0905 H         1 <1>         0.1561
     29 H5          1.5244    1.4792    2.1159 H         1 <1>         0.3338
     30 H6          2.8464   -0.4022   -5.4851 H         1 <1>         0.4045
@<TRIPOS>BOND
     1    1    6 ar
     2    1    2 ar
     3    1   26 1
     4    2    3 ar
     5    2   27 1
     6    3   23 1
     7    3    4 ar
     8    4    5 ar
     9    4   21 1
    10    5    6 ar
    11    5   28 1
    12    6    7 1
    13    7    8 am
    14    7   29 1
    15    8    9 2
    16    8   10 1
    17   10   15 ar
    18   10   11 ar
    19   11   12 ar
    20   11   20 1
    21   12   13 ar
    22   12   19 1
    23   13   14 ar
    24   13   18 1
    25   14   15 ar
    26   14   17 1
    27   15   16 1
    28   21   22 2
    29   22   23 1
    30   22   25 1
    31   23   24 1
    32   25   30 1
@<TRIPOS>Similarity
0.8965
@<TRIPOS>ShapeSim
0.5779
@<TRIPOS>PharmSim
0.3186
# END
# Name:		ZINC04597203
# Created and modified by SHAFTS on Mon Jun 23 14:53:19 2014

# 

@<TRIPOS>MOLECULE
ZINC04597203
   30    32     0
SMALL
USER_CHARGE


@<TRIPOS>ATOM
      1 C1         -0.0194    2.3960   -0.5764 C.ar      1 <1>        -0.0479
      2 C2         -0.2077    2.0800   -1.9054 C.ar      1 <1>        -0.0546
      3 C3          0.6488    1.1879   -2.5328 C.ar      1 <1>        -0.0253
      4 C4          1.7065    0.6047   -1.8154 C.ar      1 <1>        -0.0008
      5 C5          1.8883    0.9303   -0.4698 C.ar      1 <1>        -0.0204
      6 C6          1.0263    1.8221    0.1423 C.ar      1 <1>        -0.0299
      7 N1          1.2064    2.1504    1.4919 N.am      1 <1>        -0.2939
      8 C7          0.9380    3.3986    1.9235 C.2       1 <1>         0.1533
      9 O1          0.4608    4.2164    1.1603 O.2       1 <1>        -0.4433
     10 C8          1.2229    3.7725    3.3206 C.ar      1 <1>         0.1677
     11 C9          2.4740    4.2957    3.6671 C.ar      1 <1>         0.1985
     12 C10         2.7323    4.6507    4.9783 C.ar      1 <1>         0.2174
     13 C11         1.7592    4.4772    5.9516 C.ar      1 <1>         0.2214
     14 C12         0.5192    3.9533    5.6161 C.ar      1 <1>         0.2171
     15 C13         0.2455    3.6005    4.3076 C.ar      1 <1>         0.1979
     16 F1         -0.9625    3.0905    3.9825 F         1 <1>        -0.2152
     17 F2         -0.4231    3.7880    6.5700 F         1 <1>        -0.2243
     18 F3          2.0201    4.8204    7.2320 F         1 <1>        -0.2139
     19 F4          3.9373    5.1616    5.3133 F         1 <1>        -0.2241
     20 F5          3.4249    4.4593    2.7215 F         1 <1>        -0.2144
     21 N2          2.3644   -0.2187   -2.6737 N.2       1 <1>        -0.3348
     22 C14         1.7957   -0.1725   -3.8503 C.2       1 <1>         0.0895
     23 N3          0.7297    0.6773   -3.8189 N.pl3     1 <1>        -0.3050
     24 H1          0.1199    0.8921   -4.5817 H         1 <1>         0.3497
     25 O2          2.2014   -0.8693   -4.9366 O.3       1 <1>        -0.3530
     26 H2         -0.6874    3.0914   -0.0900 H         1 <1>         0.1541
     27 H3         -1.0206    2.5281   -2.4576 H         1 <1>         0.1400
     28 H4          2.6986    0.4879    0.0905 H         1 <1>         0.1561
     29 H5          1.5244    1.4792    2.1159 H         1 <1>         0.3338
     30 H6          2.8464   -0.4022   -5.4851 H         1 <1>         0.4045
@<TRIPOS>BOND
     1    1    6 ar
     2    1    2 ar
     3    1   26 1
     4    2    3 ar
     5    2   27 1
     6    3   23 1
     7    3    4 ar
     8    4    5 ar
     9    4   21 1
    10    5    6 ar
    11    5   28 1
    12    6    7 1
    13    7    8 am
    14    7   29 1
    15    8    9 2
    16    8   10 1
    17   10   15 ar
    18   10   11 ar
    19   11   12 ar
    20   11   20 1
    21   12   13 ar
    22   12   19 1
    23   13   14 ar
    24   13   18 1
    25   14   15 ar
    26   14   17 1
    27   15   16 1
    28   21   22 2
    29   22   23 1
    30   22   25 1
    31   23   24 1
    32   25   30 1
@<TRIPOS>Similarity
0.8965
@<TRIPOS>ShapeSim
0.5779
@<TRIPOS>PharmSim
0.3186
# END
# Name:		ZINC04597203
# Created and modified by SHAFTS on Mon Jun 23 14:53:19 2014

# 

@<TRIPOS>MOLECULE
ZINC04597203
   30    32     0
SMALL
USER_CHARGE


@<TRIPOS>ATOM
      1 C1         -0.0194    2.3960   -0.5764 C.ar      1 <1>        -0.0479
      2 C2         -0.2077    2.0800   -1.9054 C.ar      1 <1>        -0.0546
      3 C3          0.6488    1.1879   -2.5328 C.ar      1 <1>        -0.0253
      4 C4          1.7065    0.6047   -1.8154 C.ar      1 <1>        -0.0008
      5 C5          1.8883    0.9303   -0.4698 C.ar      1 <1>        -0.0204
      6 C6          1.0263    1.8221    0.1423 C.ar      1 <1>        -0.0299
      7 N1          1.2064    2.1504    1.4919 N.am      1 <1>        -0.2939
      8 C7          0.9380    3.3986    1.9235 C.2       1 <1>         0.1533
      9 O1          0.4608    4.2164    1.1603 O.2       1 <1>        -0.4433
     10 C8          1.2229    3.7725    3.3206 C.ar      1 <1>         0.1677
     11 C9          2.4740    4.2957    3.6671 C.ar      1 <1>         0.1985
     12 C10         2.7323    4.6507    4.9783 C.ar      1 <1>         0.2174
     13 C11         1.7592    4.4772    5.9516 C.ar      1 <1>         0.2214
     14 C12         0.5192    3.9533    5.6161 C.ar      1 <1>         0.2171
     15 C13         0.2455    3.6005    4.3076 C.ar      1 <1>         0.1979
     16 F1         -0.9625    3.0905    3.9825 F         1 <1>        -0.2152
     17 F2         -0.4231    3.7880    6.5700 F         1 <1>        -0.2243
     18 F3          2.0201    4.8204    7.2320 F         1 <1>        -0.2139
     19 F4          3.9373    5.1616    5.3133 F         1 <1>        -0.2241
     20 F5          3.4249    4.4593    2.7215 F         1 <1>        -0.2144
     21 N2          2.3644   -0.2187   -2.6737 N.2       1 <1>        -0.3348
     22 C14         1.7957   -0.1725   -3.8503 C.2       1 <1>         0.0895
     23 N3          0.7297    0.6773   -3.8189 N.pl3     1 <1>        -0.3050
     24 H1          0.1199    0.8921   -4.5817 H         1 <1>         0.3497
     25 O2          2.2014   -0.8693   -4.9366 O.3       1 <1>        -0.3530
     26 H2         -0.6874    3.0914   -0.0900 H         1 <1>         0.1541
     27 H3         -1.0206    2.5281   -2.4576 H         1 <1>         0.1400
     28 H4          2.6986    0.4879    0.0905 H         1 <1>         0.1561
     29 H5          1.5244    1.4792    2.1159 H         1 <1>         0.3338
     30 H6          2.8464   -0.4022   -5.4851 H         1 <1>         0.4045
@<TRIPOS>BOND
     1    1    6 ar
     2    1    2 ar
     3    1   26 1
     4    2    3 ar
     5    2   27 1
     6    3   23 1
     7    3    4 ar
     8    4    5 ar
     9    4   21 1
    10    5    6 ar
    11    5   28 1
    12    6    7 1
    13    7    8 am
    14    7   29 1
    15    8    9 2
    16    8   10 1
    17   10   15 ar
    18   10   11 ar
    19   11   12 ar
    20   11   20 1
    21   12   13 ar
    22   12   19 1
    23   13   14 ar
    24   13   18 1
    25   14   15 ar
    26   14   17 1
    27   15   16 1
    28   21   22 2
    29   22   23 1
    30   22   25 1
    31   23   24 1
    32   25   30 1
@<TRIPOS>Similarity
0.8965
@<TRIPOS>ShapeSim
0.5779
@<TRIPOS>PharmSim
0.3186
# END
# Name:		ZINC04597203
# Created and modified by SHAFTS on Mon Jun 23 14:53:19 2014

# 

@<TRIPOS>MOLECULE
ZINC04597203
   30    32     0
SMALL
USER_CHARGE


@<TRIPOS>ATOM
      1 C1         -0.0194    2.3960   -0.5764 C.ar      1 <1>        -0.0479
      2 C2         -0.2077    2.0800   -1.9054 C.ar      1 <1>        -0.0546
      3 C3          0.6488    1.1879   -2.5328 C.ar      1 <1>        -0.0253
      4 C4          1.7065    0.6047   -1.8154 C.ar      1 <1>        -0.0008
      5 C5          1.8883    0.9303   -0.4698 C.ar      1 <1>        -0.0204
      6 C6          1.0263    1.8221    0.1423 C.ar      1 <1>        -0.0299
      7 N1          1.2064    2.1504    1.4919 N.am      1 <1>        -0.2939
      8 C7          0.9380    3.3986    1.9235 C.2       1 <1>         0.1533
      9 O1          0.4608    4.2164    1.1603 O.2       1 <1>        -0.4433
     10 C8          1.2229    3.7725    3.3206 C.ar      1 <1>         0.1677
     11 C9          2.4740    4.2957    3.6671 C.ar      1 <1>         0.1985
     12 C10         2.7323    4.6507    4.9783 C.ar      1 <1>         0.2174
     13 C11         1.7592    4.4772    5.9516 C.ar      1 <1>         0.2214
     14 C12         0.5192    3.9533    5.6161 C.ar      1 <1>         0.2171
     15 C13         0.2455    3.6005    4.3076 C.ar      1 <1>         0.1979
     16 F1         -0.9625    3.0905    3.9825 F         1 <1>        -0.2152
     17 F2         -0.4231    3.7880    6.5700 F         1 <1>        -0.2243
     18 F3          2.0201    4.8204    7.2320 F         1 <1>        -0.2139
     19 F4          3.9373    5.1616    5.3133 F         1 <1>        -0.2241
     20 F5          3.4249    4.4593    2.7215 F         1 <1>        -0.2144
     21 N2          2.3644   -0.2187   -2.6737 N.2       1 <1>        -0.3348
     22 C14         1.7957   -0.1725   -3.8503 C.2       1 <1>         0.0895
     23 N3          0.7297    0.6773   -3.8189 N.pl3     1 <1>        -0.3050
     24 H1          0.1199    0.8921   -4.5817 H         1 <1>         0.3497
     25 O2          2.2014   -0.8693   -4.9366 O.3       1 <1>        -0.3530
     26 H2         -0.6874    3.0914   -0.0900 H         1 <1>         0.1541
     27 H3         -1.0206    2.5281   -2.4576 H         1 <1>         0.1400
     28 H4          2.6986    0.4879    0.0905 H         1 <1>         0.1561
     29 H5          1.5244    1.4792    2.1159 H         1 <1>         0.3338
     30 H6          2.8464   -0.4022   -5.4851 H         1 <1>         0.4045
@<TRIPOS>BOND
     1    1    6 ar
     2    1    2 ar
     3    1   26 1
     4    2    3 ar
     5    2   27 1
     6    3   23 1
     7    3    4 ar
     8    4    5 ar
     9    4   21 1
    10    5    6 ar
    11    5   28 1
    12    6    7 1
    13    7    8 am
    14    7   29 1
    15    8    9 2
    16    8   10 1
    17   10   15 ar
    18   10   11 ar
    19   11   12 ar
    20   11   20 1
    21   12   13 ar
    22   12   19 1
    23   13   14 ar
    24   13   18 1
    25   14   15 ar
    26   14   17 1
    27   15   16 1
    28   21   22 2
    29   22   23 1
    30   22   25 1
    31   23   24 1
    32   25   30 1
@<TRIPOS>Similarity
0.8965
@<TRIPOS>ShapeSim
0.5779
@<TRIPOS>PharmSim
0.3186
# END
# Name:		ZINC04597203
# Created and modified by SHAFTS on Mon Jun 23 14:53:19 2014

# 

@<TRIPOS>MOLECULE
ZINC04597203
   30    32     0
SMALL
USER_CHARGE


@<TRIPOS>ATOM
      1 C1         -0.0194    2.3960   -0.5764 C.ar      1 <1>        -0.0479
      2 C2         -0.2077    2.0800   -1.9054 C.ar      1 <1>        -0.0546
      3 C3          0.6488    1.1879   -2.5328 C.ar      1 <1>        -0.0253
      4 C4          1.7065    0.6047   -1.8154 C.ar      1 <1>        -0.0008
      5 C5          1.8883    0.9303   -0.4698 C.ar      1 <1>        -0.0204
      6 C6          1.0263    1.8221    0.1423 C.ar      1 <1>        -0.0299
      7 N1          1.2064    2.1504    1.4919 N.am      1 <1>        -0.2939
      8 C7          0.9380    3.3986    1.9235 C.2       1 <1>         0.1533
      9 O1          0.4608    4.2164    1.1603 O.2       1 <1>        -0.4433
     10 C8          1.2229    3.7725    3.3206 C.ar      1 <1>         0.1677
     11 C9          2.4740    4.2957    3.6671 C.ar      1 <1>         0.1985
     12 C10         2.7323    4.6507    4.9783 C.ar      1 <1>         0.2174
     13 C11         1.7592    4.4772    5.9516 C.ar      1 <1>         0.2214
     14 C12         0.5192    3.9533    5.6161 C.ar      1 <1>         0.2171
     15 C13         0.2455    3.6005    4.3076 C.ar      1 <1>         0.1979
     16 F1         -0.9625    3.0905    3.9825 F         1 <1>        -0.2152
     17 F2         -0.4231    3.7880    6.5700 F         1 <1>        -0.2243
     18 F3          2.0201    4.8204    7.2320 F         1 <1>        -0.2139
     19 F4          3.9373    5.1616    5.3133 F         1 <1>        -0.2241
     20 F5          3.4249    4.4593    2.7215 F         1 <1>        -0.2144
     21 N2          2.3644   -0.2187   -2.6737 N.2       1 <1>        -0.3348
     22 C14         1.7957   -0.1725   -3.8503 C.2       1 <1>         0.0895
     23 N3          0.7297    0.6773   -3.8189 N.pl3     1 <1>        -0.3050
     24 H1          0.1199    0.8921   -4.5817 H         1 <1>         0.3497
     25 O2          2.2014   -0.8693   -4.9366 O.3       1 <1>        -0.3530
     26 H2         -0.6874    3.0914   -0.0900 H         1 <1>         0.1541
     27 H3         -1.0206    2.5281   -2.4576 H         1 <1>         0.1400
     28 H4          2.6986    0.4879    0.0905 H         1 <1>         0.1561
     29 H5          1.5244    1.4792    2.1159 H         1 <1>         0.3338
     30 H6          2.8464   -0.4022   -5.4851 H         1 <1>         0.4045
@<TRIPOS>BOND
     1    1    6 ar
     2    1    2 ar
     3    1   26 1
     4    2    3 ar
     5    2   27 1
     6    3   23 1
     7    3    4 ar
     8    4    5 ar
     9    4   21 1
    10    5    6 ar
    11    5   28 1
    12    6    7 1
    13    7    8 am
    14    7   29 1
    15    8    9 2
    16    8   10 1
    17   10   15 ar
    18   10   11 ar
    19   11   12 ar
    20   11   20 1
    21   12   13 ar
    22   12   19 1
    23   13   14 ar
    24   13   18 1
    25   14   15 ar
    26   14   17 1
    27   15   16 1
    28   21   22 2
    29   22   23 1
    30   22   25 1
    31   23   24 1
    32   25   30 1
@<TRIPOS>Similarity
0.8965
@<TRIPOS>ShapeSim
0.5779
@<TRIPOS>PharmSim
0.3186
# END
# Name:		ZINC04597203
# Created and modified by SHAFTS on Mon Jun 23 14:53:19 2014

# 

@<TRIPOS>MOLECULE
ZINC04597203
   30    32     0
SMALL
USER_CHARGE


@<TRIPOS>ATOM
      1 C1         -0.0194    2.3960   -0.5764 C.ar      1 <1>        -0.0479
      2 C2         -0.2077    2.0800   -1.9054 C.ar      1 <1>        -0.0546
      3 C3          0.6488    1.1879   -2.5328 C.ar      1 <1>        -0.0253
      4 C4          1.7065    0.6047   -1.8154 C.ar      1 <1>        -0.0008
      5 C5          1.8883    0.9303   -0.4698 C.ar      1 <1>        -0.0204
      6 C6          1.0263    1.8221    0.1423 C.ar      1 <1>        -0.0299
      7 N1          1.2064    2.1504    1.4919 N.am      1 <1>        -0.2939
      8 C7          0.9380    3.3986    1.9235 C.2       1 <1>         0.1533
      9 O1          0.4608    4.2164    1.1603 O.2       1 <1>        -0.4433
     10 C8          1.2229    3.7725    3.3206 C.ar      1 <1>         0.1677
     11 C9          2.4740    4.2957    3.6671 C.ar      1 <1>         0.1985
     12 C10         2.7323    4.6507    4.9783 C.ar      1 <1>         0.2174
     13 C11         1.7592    4.4772    5.9516 C.ar      1 <1>         0.2214
     14 C12         0.5192    3.9533    5.6161 C.ar      1 <1>         0.2171
     15 C13         0.2455    3.6005    4.3076 C.ar      1 <1>         0.1979
     16 F1         -0.9625    3.0905    3.9825 F         1 <1>        -0.2152
     17 F2         -0.4231    3.7880    6.5700 F         1 <1>        -0.2243
     18 F3          2.0201    4.8204    7.2320 F         1 <1>        -0.2139
     19 F4          3.9373    5.1616    5.3133 F         1 <1>        -0.2241
     20 F5          3.4249    4.4593    2.7215 F         1 <1>        -0.2144
     21 N2          2.3644   -0.2187   -2.6737 N.2       1 <1>        -0.3348
     22 C14         1.7957   -0.1725   -3.8503 C.2       1 <1>         0.0895
     23 N3          0.7297    0.6773   -3.8189 N.pl3     1 <1>        -0.3050
     24 H1          0.1199    0.8921   -4.5817 H         1 <1>         0.3497
     25 O2          2.2014   -0.8693   -4.9366 O.3       1 <1>        -0.3530
     26 H2         -0.6874    3.0914   -0.0900 H         1 <1>         0.1541
     27 H3         -1.0206    2.5281   -2.4576 H         1 <1>         0.1400
     28 H4          2.6986    0.4879    0.0905 H         1 <1>         0.1561
     29 H5          1.5244    1.4792    2.1159 H         1 <1>         0.3338
     30 H6          2.8464   -0.4022   -5.4851 H         1 <1>         0.4045
@<TRIPOS>BOND
     1    1    6 ar
     2    1    2 ar
     3    1   26 1
     4    2    3 ar
     5    2   27 1
     6    3   23 1
     7    3    4 ar
     8    4    5 ar
     9    4   21 1
    10    5    6 ar
    11    5   28 1
    12    6    7 1
    13    7    8 am
    14    7   29 1
    15    8    9 2
    16    8   10 1
    17   10   15 ar
    18   10   11 ar
    19   11   12 ar
    20   11   20 1
    21   12   13 ar
    22   12   19 1
    23   13   14 ar
    24   13   18 1
    25   14   15 ar
    26   14   17 1
    27   15   16 1
    28   21   22 2
    29   22   23 1
    30   22   25 1
    31   23   24 1
    32   25   30 1
@<TRIPOS>Similarity
0.8965
@<TRIPOS>ShapeSim
0.5779
@<TRIPOS>PharmSim
0.3186
# END
# Name:		ZINC04597203
# Created and modified by SHAFTS on Mon Jun 23 14:53:19 2014

# 

@<TRIPOS>MOLECULE
ZINC04597203
   30    32     0
SMALL
USER_CHARGE


@<TRIPOS>ATOM
      1 C1         -0.0194    2.3960   -0.5764 C.ar      1 <1>        -0.0479
      2 C2         -0.2077    2.0800   -1.9054 C.ar      1 <1>        -0.0546
      3 C3          0.6488    1.1879   -2.5328 C.ar      1 <1>        -0.0253
      4 C4          1.7065    0.6047   -1.8154 C.ar      1 <1>        -0.0008
      5 C5          1.8883    0.9303   -0.4698 C.ar      1 <1>        -0.0204
      6 C6          1.0263    1.8221    0.1423 C.ar      1 <1>        -0.0299
      7 N1          1.2064    2.1504    1.4919 N.am      1 <1>        -0.2939
      8 C7          0.9380    3.3986    1.9235 C.2       1 <1>         0.1533
      9 O1          0.4608    4.2164    1.1603 O.2       1 <1>        -0.4433
     10 C8          1.2229    3.7725    3.3206 C.ar      1 <1>         0.1677
     11 C9          2.4740    4.2957    3.6671 C.ar      1 <1>         0.1985
     12 C10         2.7323    4.6507    4.9783 C.ar      1 <1>         0.2174
     13 C11         1.7592    4.4772    5.9516 C.ar      1 <1>         0.2214
     14 C12         0.5192    3.9533    5.6161 C.ar      1 <1>         0.2171
     15 C13         0.2455    3.6005    4.3076 C.ar      1 <1>         0.1979
     16 F1         -0.9625    3.0905    3.9825 F         1 <1>        -0.2152
     17 F2         -0.4231    3.7880    6.5700 F         1 <1>        -0.2243
     18 F3          2.0201    4.8204    7.2320 F         1 <1>        -0.2139
     19 F4          3.9373    5.1616    5.3133 F         1 <1>        -0.2241
     20 F5          3.4249    4.4593    2.7215 F         1 <1>        -0.2144
     21 N2          2.3644   -0.2187   -2.6737 N.2       1 <1>        -0.3348
     22 C14         1.7957   -0.1725   -3.8503 C.2       1 <1>         0.0895
     23 N3          0.7297    0.6773   -3.8189 N.pl3     1 <1>        -0.3050
     24 H1          0.1199    0.8921   -4.5817 H         1 <1>         0.3497
     25 O2          2.2014   -0.8693   -4.9366 O.3       1 <1>        -0.3530
     26 H2         -0.6874    3.0914   -0.0900 H         1 <1>         0.1541
     27 H3         -1.0206    2.5281   -2.4576 H         1 <1>         0.1400
     28 H4          2.6986    0.4879    0.0905 H         1 <1>         0.1561
     29 H5          1.5244    1.4792    2.1159 H         1 <1>         0.3338
     30 H6          2.8464   -0.4022   -5.4851 H         1 <1>         0.4045
@<TRIPOS>BOND
     1    1    6 ar
     2    1    2 ar
     3    1   26 1
     4    2    3 ar
     5    2   27 1
     6    3   23 1
     7    3    4 ar
     8    4    5 ar
     9    4   21 1
    10    5    6 ar
    11    5   28 1
    12    6    7 1
    13    7    8 am
    14    7   29 1
    15    8    9 2
    16    8   10 1
    17   10   15 ar
    18   10   11 ar
    19   11   12 ar
    20   11   20 1
    21   12   13 ar
    22   12   19 1
    23   13   14 ar
    24   13   18 1
    25   14   15 ar
    26   14   17 1
    27   15   16 1
    28   21   22 2
    29   22   23 1
    30   22   25 1
    31   23   24 1
    32   25   30 1
@<TRIPOS>Similarity
0.8965
@<TRIPOS>ShapeSim
0.5779
@<TRIPOS>PharmSim
0.3186
# END
# Name:		ZINC04597203
# Created and modified by SHAFTS on Mon Jun 23 14:53:19 2014

# 

@<TRIPOS>MOLECULE
ZINC04597203
   30    32     0
SMALL
USER_CHARGE


@<TRIPOS>ATOM
      1 C1         -0.0194    2.3960   -0.5764 C.ar      1 <1>        -0.0479
      2 C2         -0.2077    2.0800   -1.9054 C.ar      1 <1>        -0.0546
      3 C3          0.6488    1.1879   -2.5328 C.ar      1 <1>        -0.0253
      4 C4          1.7065    0.6047   -1.8154 C.ar      1 <1>        -0.0008
      5 C5          1.8883    0.9303   -0.4698 C.ar      1 <1>        -0.0204
      6 C6          1.0263    1.8221    0.1423 C.ar      1 <1>        -0.0299
      7 N1          1.2064    2.1504    1.4919 N.am      1 <1>        -0.2939
      8 C7          0.9380    3.3986    1.9235 C.2       1 <1>         0.1533
      9 O1          0.4608    4.2164    1.1603 O.2       1 <1>        -0.4433
     10 C8          1.2229    3.7725    3.3206 C.ar      1 <1>         0.1677
     11 C9          2.4740    4.2957    3.6671 C.ar      1 <1>         0.1985
     12 C10         2.7323    4.6507    4.9783 C.ar      1 <1>         0.2174
     13 C11         1.7592    4.4772    5.9516 C.ar      1 <1>         0.2214
     14 C12         0.5192    3.9533    5.6161 C.ar      1 <1>         0.2171
     15 C13         0.2455    3.6005    4.3076 C.ar      1 <1>         0.1979
     16 F1         -0.9625    3.0905    3.9825 F         1 <1>        -0.2152
     17 F2         -0.4231    3.7880    6.5700 F         1 <1>        -0.2243
     18 F3          2.0201    4.8204    7.2320 F         1 <1>        -0.2139
     19 F4          3.9373    5.1616    5.3133 F         1 <1>        -0.2241
     20 F5          3.4249    4.4593    2.7215 F         1 <1>        -0.2144
     21 N2          2.3644   -0.2187   -2.6737 N.2       1 <1>        -0.3348
     22 C14         1.7957   -0.1725   -3.8503 C.2       1 <1>         0.0895
     23 N3          0.7297    0.6773   -3.8189 N.pl3     1 <1>        -0.3050
     24 H1          0.1199    0.8921   -4.5817 H         1 <1>         0.3497
     25 O2          2.2014   -0.8693   -4.9366 O.3       1 <1>        -0.3530
     26 H2         -0.6874    3.0914   -0.0900 H         1 <1>         0.1541
     27 H3         -1.0206    2.5281   -2.4576 H         1 <1>         0.1400
     28 H4          2.6986    0.4879    0.0905 H         1 <1>         0.1561
     29 H5          1.5244    1.4792    2.1159 H         1 <1>         0.3338
     30 H6          2.8464   -0.4022   -5.4851 H         1 <1>         0.4045
@<TRIPOS>BOND
     1    1    6 ar
     2    1    2 ar
     3    1   26 1
     4    2    3 ar
     5    2   27 1
     6    3   23 1
     7    3    4 ar
     8    4    5 ar
     9    4   21 1
    10    5    6 ar
    11    5   28 1
    12    6    7 1
    13    7    8 am
    14    7   29 1
    15    8    9 2
    16    8   10 1
    17   10   15 ar
    18   10   11 ar
    19   11   12 ar
    20   11   20 1
    21   12   13 ar
    22   12   19 1
    23   13   14 ar
    24   13   18 1
    25   14   15 ar
    26   14   17 1
    27   15   16 1
    28   21   22 2
    29   22   23 1
    30   22   25 1
    31   23   24 1
    32   25   30 1
@<TRIPOS>Similarity
0.8965
@<TRIPOS>ShapeSim
0.5779
@<TRIPOS>PharmSim
0.3186
# END
# Name:		ZINC04597203
# Created and modified by SHAFTS on Mon Jun 23 14:53:19 2014

# 

@<TRIPOS>MOLECULE
ZINC04597203
   30    32     0
SMALL
USER_CHARGE


@<TRIPOS>ATOM
      1 C1         -0.0194    2.3960   -0.5764 C.ar      1 <1>        -0.0479
      2 C2         -0.2077    2.0800   -1.9054 C.ar      1 <1>        -0.0546
      3 C3          0.6488    1.1879   -2.5328 C.ar      1 <1>        -0.0253
      4 C4          1.7065    0.6047   -1.8154 C.ar      1 <1>        -0.0008
      5 C5          1.8883    0.9303   -0.4698 C.ar      1 <1>        -0.0204
      6 C6          1.0263    1.8221    0.1423 C.ar      1 <1>        -0.0299
      7 N1          1.2064    2.1504    1.4919 N.am      1 <1>        -0.2939
      8 C7          0.9380    3.3986    1.9235 C.2       1 <1>         0.1533
      9 O1          0.4608    4.2164    1.1603 O.2       1 <1>        -0.4433
     10 C8          1.2229    3.7725    3.3206 C.ar      1 <1>         0.1677
     11 C9          2.4740    4.2957    3.6671 C.ar      1 <1>         0.1985
     12 C10         2.7323    4.6507    4.9783 C.ar      1 <1>         0.2174
     13 C11         1.7592    4.4772    5.9516 C.ar      1 <1>         0.2214
     14 C12         0.5192    3.9533    5.6161 C.ar      1 <1>         0.2171
     15 C13         0.2455    3.6005    4.3076 C.ar      1 <1>         0.1979
     16 F1         -0.9625    3.0905    3.9825 F         1 <1>        -0.2152
     17 F2         -0.4231    3.7880    6.5700 F         1 <1>        -0.2243
     18 F3          2.0201    4.8204    7.2320 F         1 <1>        -0.2139
     19 F4          3.9373    5.1616    5.3133 F         1 <1>        -0.2241
     20 F5          3.4249    4.4593    2.7215 F         1 <1>        -0.2144
     21 N2          2.3644   -0.2187   -2.6737 N.2       1 <1>        -0.3348
     22 C14         1.7957   -0.1725   -3.8503 C.2       1 <1>         0.0895
     23 N3          0.7297    0.6773   -3.8189 N.pl3     1 <1>        -0.3050
     24 H1          0.1199    0.8921   -4.5817 H         1 <1>         0.3497
     25 O2          2.2014   -0.8693   -4.9366 O.3       1 <1>        -0.3530
     26 H2         -0.6874    3.0914   -0.0900 H         1 <1>         0.1541
     27 H3         -1.0206    2.5281   -2.4576 H         1 <1>         0.1400
     28 H4          2.6986    0.4879    0.0905 H         1 <1>         0.1561
     29 H5          1.5244    1.4792    2.1159 H         1 <1>         0.3338
     30 H6          2.8464   -0.4022   -5.4851 H         1 <1>         0.4045
@<TRIPOS>BOND
     1    1    6 ar
     2    1    2 ar
     3    1   26 1
     4    2    3 ar
     5    2   27 1
     6    3   23 1
     7    3    4 ar
     8    4    5 ar
     9    4   21 1
    10    5    6 ar
    11    5   28 1
    12    6    7 1
    13    7    8 am
    14    7   29 1
    15    8    9 2
    16    8   10 1
    17   10   15 ar
    18   10   11 ar
    19   11   12 ar
    20   11   20 1
    21   12   13 ar
    22   12   19 1
    23   13   14 ar
    24   13   18 1
    25   14   15 ar
    26   14   17 1
    27   15   16 1
    28   21   22 2
    29   22   23 1
    30   22   25 1
    31   23   24 1
    32   25   30 1
@<TRIPOS>Similarity
0.8965
@<TRIPOS>ShapeSim
0.5779
@<TRIPOS>PharmSim
0.3186
# END
# Name:		ZINC04597203
# Created and modified by SHAFTS on Mon Jun 23 14:53:19 2014

# 

@<TRIPOS>MOLECULE
ZINC04597203
   30    32     0
SMALL
USER_CHARGE


@<TRIPOS>ATOM
      1 C1         -0.0194    2.3960   -0.5764 C.ar      1 <1>        -0.0479
      2 C2         -0.2077    2.0800   -1.9054 C.ar      1 <1>        -0.0546
      3 C3          0.6488    1.1879   -2.5328 C.ar      1 <1>        -0.0253
      4 C4          1.7065    0.6047   -1.8154 C.ar      1 <1>        -0.0008
      5 C5          1.8883    0.9303   -0.4698 C.ar      1 <1>        -0.0204
      6 C6          1.0263    1.8221    0.1423 C.ar      1 <1>        -0.0299
      7 N1          1.2064    2.1504    1.4919 N.am      1 <1>        -0.2939
      8 C7          0.9380    3.3986    1.9235 C.2       1 <1>         0.1533
      9 O1          0.4608    4.2164    1.1603 O.2       1 <1>        -0.4433
     10 C8          1.2229    3.7725    3.3206 C.ar      1 <1>         0.1677
     11 C9          2.4740    4.2957    3.6671 C.ar      1 <1>         0.1985
     12 C10         2.7323    4.6507    4.9783 C.ar      1 <1>         0.2174
     13 C11         1.7592    4.4772    5.9516 C.ar      1 <1>         0.2214
     14 C12         0.5192    3.9533    5.6161 C.ar      1 <1>         0.2171
     15 C13         0.2455    3.6005    4.3076 C.ar      1 <1>         0.1979
     16 F1         -0.9625    3.0905    3.9825 F         1 <1>        -0.2152
     17 F2         -0.4231    3.7880    6.5700 F         1 <1>        -0.2243
     18 F3          2.0201    4.8204    7.2320 F         1 <1>        -0.2139
     19 F4          3.9373    5.1616    5.3133 F         1 <1>        -0.2241
     20 F5          3.4249    4.4593    2.7215 F         1 <1>        -0.2144
     21 N2          2.3644   -0.2187   -2.6737 N.2       1 <1>        -0.3348
     22 C14         1.7957   -0.1725   -3.8503 C.2       1 <1>         0.0895
     23 N3          0.7297    0.6773   -3.8189 N.pl3     1 <1>        -0.3050
     24 H1          0.1199    0.8921   -4.5817 H         1 <1>         0.3497
     25 O2          2.2014   -0.8693   -4.9366 O.3       1 <1>        -0.3530
     26 H2         -0.6874    3.0914   -0.0900 H         1 <1>         0.1541
     27 H3         -1.0206    2.5281   -2.4576 H         1 <1>         0.1400
     28 H4          2.6986    0.4879    0.0905 H         1 <1>         0.1561
     29 H5          1.5244    1.4792    2.1159 H         1 <1>         0.3338
     30 H6          2.8464   -0.4022   -5.4851 H         1 <1>         0.4045
@<TRIPOS>BOND
     1    1    6 ar
     2    1    2 ar
     3    1   26 1
     4    2    3 ar
     5    2   27 1
     6    3   23 1
     7    3    4 ar
     8    4    5 ar
     9    4   21 1
    10    5    6 ar
    11    5   28 1
    12    6    7 1
    13    7    8 am
    14    7   29 1
    15    8    9 2
    16    8   10 1
    17   10   15 ar
    18   10   11 ar
    19   11   12 ar
    20   11   20 1
    21   12   13 ar
    22   12   19 1
    23   13   14 ar
    24   13   18 1
    25   14   15 ar
    26   14   17 1
    27   15   16 1
    28   21   22 2
    29   22   23 1
    30   22   25 1
    31   23   24 1
    32   25   30 1
@<TRIPOS>Similarity
0.8965
@<TRIPOS>ShapeSim
0.5779
@<TRIPOS>PharmSim
0.3186
# END
# Name:		ZINC04597203
# Created and modified by SHAFTS on Mon Jun 23 14:53:19 2014

# 

@<TRIPOS>MOLECULE
ZINC04597203
   30    32     0
SMALL
USER_CHARGE


@<TRIPOS>ATOM
      1 C1         -0.0194    2.3960   -0.5764 C.ar      1 <1>        -0.0479
      2 C2         -0.2077    2.0800   -1.9054 C.ar      1 <1>        -0.0546
      3 C3          0.6488    1.1879   -2.5328 C.ar      1 <1>        -0.0253
      4 C4          1.7065    0.6047   -1.8154 C.ar      1 <1>        -0.0008
      5 C5          1.8883    0.9303   -0.4698 C.ar      1 <1>        -0.0204
      6 C6          1.0263    1.8221    0.1423 C.ar      1 <1>        -0.0299
      7 N1          1.2064    2.1504    1.4919 N.am      1 <1>        -0.2939
      8 C7          0.9380    3.3986    1.9235 C.2       1 <1>         0.1533
      9 O1          0.4608    4.2164    1.1603 O.2       1 <1>        -0.4433
     10 C8          1.2229    3.7725    3.3206 C.ar      1 <1>         0.1677
     11 C9          2.4740    4.2957    3.6671 C.ar      1 <1>         0.1985
     12 C10         2.7323    4.6507    4.9783 C.ar      1 <1>         0.2174
     13 C11         1.7592    4.4772    5.9516 C.ar      1 <1>         0.2214
     14 C12         0.5192    3.9533    5.6161 C.ar      1 <1>         0.2171
     15 C13         0.2455    3.6005    4.3076 C.ar      1 <1>         0.1979
     16 F1         -0.9625    3.0905    3.9825 F         1 <1>        -0.2152
     17 F2         -0.4231    3.7880    6.5700 F         1 <1>        -0.2243
     18 F3          2.0201    4.8204    7.2320 F         1 <1>        -0.2139
     19 F4          3.9373    5.1616    5.3133 F         1 <1>        -0.2241
     20 F5          3.4249    4.4593    2.7215 F         1 <1>        -0.2144
     21 N2          2.3644   -0.2187   -2.6737 N.2       1 <1>        -0.3348
     22 C14         1.7957   -0.1725   -3.8503 C.2       1 <1>         0.0895
     23 N3          0.7297    0.6773   -3.8189 N.pl3     1 <1>        -0.3050
     24 H1          0.1199    0.8921   -4.5817 H         1 <1>         0.3497
     25 O2          2.2014   -0.8693   -4.9366 O.3       1 <1>        -0.3530
     26 H2         -0.6874    3.0914   -0.0900 H         1 <1>         0.1541
     27 H3         -1.0206    2.5281   -2.4576 H         1 <1>         0.1400
     28 H4          2.6986    0.4879    0.0905 H         1 <1>         0.1561
     29 H5          1.5244    1.4792    2.1159 H         1 <1>         0.3338
     30 H6          2.8464   -0.4022   -5.4851 H         1 <1>         0.4045
@<TRIPOS>BOND
     1    1    6 ar
     2    1    2 ar
     3    1   26 1
     4    2    3 ar
     5    2   27 1
     6    3   23 1
     7    3    4 ar
     8    4    5 ar
     9    4   21 1
    10    5    6 ar
    11    5   28 1
    12    6    7 1
    13    7    8 am
    14    7   29 1
    15    8    9 2
    16    8   10 1
    17   10   15 ar
    18   10   11 ar
    19   11   12 ar
    20   11   20 1
    21   12   13 ar
    22   12   19 1
    23   13   14 ar
    24   13   18 1
    25   14   15 ar
    26   14   17 1
    27   15   16 1
    28   21   22 2
    29   22   23 1
    30   22   25 1
    31   23   24 1
    32   25   30 1
@<TRIPOS>Similarity
0.8965
@<TRIPOS>ShapeSim
0.5779
@<TRIPOS>PharmSim
0.3186
# END
# Name:		ZINC04597203
# Created and modified by SHAFTS on Mon Jun 23 14:53:19 2014

# 

@<TRIPOS>MOLECULE
ZINC04597203
   30    32     0
SMALL
USER_CHARGE


@<TRIPOS>ATOM
      1 C1         -0.0194    2.3960   -0.5764 C.ar      1 <1>        -0.0479
      2 C2         -0.2077    2.0800   -1.9054 C.ar      1 <1>        -0.0546
      3 C3          0.6488    1.1879   -2.5328 C.ar      1 <1>        -0.0253
      4 C4          1.7065    0.6047   -1.8154 C.ar      1 <1>        -0.0008
      5 C5          1.8883    0.9303   -0.4698 C.ar      1 <1>        -0.0204
      6 C6          1.0263    1.8221    0.1423 C.ar      1 <1>        -0.0299
      7 N1          1.2064    2.1504    1.4919 N.am      1 <1>        -0.2939
      8 C7          0.9380    3.3986    1.9235 C.2       1 <1>         0.1533
      9 O1          0.4608    4.2164    1.1603 O.2       1 <1>        -0.4433
     10 C8          1.2229    3.7725    3.3206 C.ar      1 <1>         0.1677
     11 C9          2.4740    4.2957    3.6671 C.ar      1 <1>         0.1985
     12 C10         2.7323    4.6507    4.9783 C.ar      1 <1>         0.2174
     13 C11         1.7592    4.4772    5.9516 C.ar      1 <1>         0.2214
     14 C12         0.5192    3.9533    5.6161 C.ar      1 <1>         0.2171
     15 C13         0.2455    3.6005    4.3076 C.ar      1 <1>         0.1979
     16 F1         -0.9625    3.0905    3.9825 F         1 <1>        -0.2152
     17 F2         -0.4231    3.7880    6.5700 F         1 <1>        -0.2243
     18 F3          2.0201    4.8204    7.2320 F         1 <1>        -0.2139
     19 F4          3.9373    5.1616    5.3133 F         1 <1>        -0.2241
     20 F5          3.4249    4.4593    2.7215 F         1 <1>        -0.2144
     21 N2          2.3644   -0.2187   -2.6737 N.2       1 <1>        -0.3348
     22 C14         1.7957   -0.1725   -3.8503 C.2       1 <1>         0.0895
     23 N3          0.7297    0.6773   -3.8189 N.pl3     1 <1>        -0.3050
     24 H1          0.1199    0.8921   -4.5817 H         1 <1>         0.3497
     25 O2          2.2014   -0.8693   -4.9366 O.3       1 <1>        -0.3530
     26 H2         -0.6874    3.0914   -0.0900 H         1 <1>         0.1541
     27 H3         -1.0206    2.5281   -2.4576 H         1 <1>         0.1400
     28 H4          2.6986    0.4879    0.0905 H         1 <1>         0.1561
     29 H5          1.5244    1.4792    2.1159 H         1 <1>         0.3338
     30 H6          2.8464   -0.4022   -5.4851 H         1 <1>         0.4045
@<TRIPOS>BOND
     1    1    6 ar
     2    1    2 ar
     3    1   26 1
     4    2    3 ar
     5    2   27 1
     6    3   23 1
     7    3    4 ar
     8    4    5 ar
     9    4   21 1
    10    5    6 ar
    11    5   28 1
    12    6    7 1
    13    7    8 am
    14    7   29 1
    15    8    9 2
    16    8   10 1
    17   10   15 ar
    18   10   11 ar
    19   11   12 ar
    20   11   20 1
    21   12   13 ar
    22   12   19 1
    23   13   14 ar
    24   13   18 1
    25   14   15 ar
    26   14   17 1
    27   15   16 1
    28   21   22 2
    29   22   23 1
    30   22   25 1
    31   23   24 1
    32   25   30 1
@<TRIPOS>Similarity
0.8965
@<TRIPOS>ShapeSim
0.5779
@<TRIPOS>PharmSim
0.3186
# END
# Name:		ZINC04597203
# Created and modified by SHAFTS on Mon Jun 23 14:53:19 2014

# 

@<TRIPOS>MOLECULE
ZINC04597203
   30    32     0
SMALL
USER_CHARGE


@<TRIPOS>ATOM
      1 C1         -0.0194    2.3960   -0.5764 C.ar      1 <1>        -0.0479
      2 C2         -0.2077    2.0800   -1.9054 C.ar      1 <1>        -0.0546
      3 C3          0.6488    1.1879   -2.5328 C.ar      1 <1>        -0.0253
      4 C4          1.7065    0.6047   -1.8154 C.ar      1 <1>        -0.0008
      5 C5          1.8883    0.9303   -0.4698 C.ar      1 <1>        -0.0204
      6 C6          1.0263    1.8221    0.1423 C.ar      1 <1>        -0.0299
      7 N1          1.2064    2.1504    1.4919 N.am      1 <1>        -0.2939
      8 C7          0.9380    3.3986    1.9235 C.2       1 <1>         0.1533
      9 O1          0.4608    4.2164    1.1603 O.2       1 <1>        -0.4433
     10 C8          1.2229    3.7725    3.3206 C.ar      1 <1>         0.1677
     11 C9          2.4740    4.2957    3.6671 C.ar      1 <1>         0.1985
     12 C10         2.7323    4.6507    4.9783 C.ar      1 <1>         0.2174
     13 C11         1.7592    4.4772    5.9516 C.ar      1 <1>         0.2214
     14 C12         0.5192    3.9533    5.6161 C.ar      1 <1>         0.2171
     15 C13         0.2455    3.6005    4.3076 C.ar      1 <1>         0.1979
     16 F1         -0.9625    3.0905    3.9825 F         1 <1>        -0.2152
     17 F2         -0.4231    3.7880    6.5700 F         1 <1>        -0.2243
     18 F3          2.0201    4.8204    7.2320 F         1 <1>        -0.2139
     19 F4          3.9373    5.1616    5.3133 F         1 <1>        -0.2241
     20 F5          3.4249    4.4593    2.7215 F         1 <1>        -0.2144
     21 N2          2.3644   -0.2187   -2.6737 N.2       1 <1>        -0.3348
     22 C14         1.7957   -0.1725   -3.8503 C.2       1 <1>         0.0895
     23 N3          0.7297    0.6773   -3.8189 N.pl3     1 <1>        -0.3050
     24 H1          0.1199    0.8921   -4.5817 H         1 <1>         0.3497
     25 O2          2.2014   -0.8693   -4.9366 O.3       1 <1>        -0.3530
     26 H2         -0.6874    3.0914   -0.0900 H         1 <1>         0.1541
     27 H3         -1.0206    2.5281   -2.4576 H         1 <1>         0.1400
     28 H4          2.6986    0.4879    0.0905 H         1 <1>         0.1561
     29 H5          1.5244    1.4792    2.1159 H         1 <1>         0.3338
     30 H6          2.8464   -0.4022   -5.4851 H         1 <1>         0.4045
@<TRIPOS>BOND
     1    1    6 ar
     2    1    2 ar
     3    1   26 1
     4    2    3 ar
     5    2   27 1
     6    3   23 1
     7    3    4 ar
     8    4    5 ar
     9    4   21 1
    10    5    6 ar
    11    5   28 1
    12    6    7 1
    13    7    8 am
    14    7   29 1
    15    8    9 2
    16    8   10 1
    17   10   15 ar
    18   10   11 ar
    19   11   12 ar
    20   11   20 1
    21   12   13 ar
    22   12   19 1
    23   13   14 ar
    24   13   18 1
    25   14   15 ar
    26   14   17 1
    27   15   16 1
    28   21   22 2
    29   22   23 1
    30   22   25 1
    31   23   24 1
    32   25   30 1
@<TRIPOS>Similarity
0.8965
@<TRIPOS>ShapeSim
0.5779
@<TRIPOS>PharmSim
0.3186
# END
# Name:		ZINC04597203
# Created and modified by SHAFTS on Mon Jun 23 14:53:19 2014

# 

@<TRIPOS>MOLECULE
ZINC04597203
   30    32     0
SMALL
USER_CHARGE


@<TRIPOS>ATOM
      1 C1         -0.0194    2.3960   -0.5764 C.ar      1 <1>        -0.0479
      2 C2         -0.2077    2.0800   -1.9054 C.ar      1 <1>        -0.0546
      3 C3          0.6488    1.1879   -2.5328 C.ar      1 <1>        -0.0253
      4 C4          1.7065    0.6047   -1.8154 C.ar      1 <1>        -0.0008
      5 C5          1.8883    0.9303   -0.4698 C.ar      1 <1>        -0.0204
      6 C6          1.0263    1.8221    0.1423 C.ar      1 <1>        -0.0299
      7 N1          1.2064    2.1504    1.4919 N.am      1 <1>        -0.2939
      8 C7          0.9380    3.3986    1.9235 C.2       1 <1>         0.1533
      9 O1          0.4608    4.2164    1.1603 O.2       1 <1>        -0.4433
     10 C8          1.2229    3.7725    3.3206 C.ar      1 <1>         0.1677
     11 C9          2.4740    4.2957    3.6671 C.ar      1 <1>         0.1985
     12 C10         2.7323    4.6507    4.9783 C.ar      1 <1>         0.2174
     13 C11         1.7592    4.4772    5.9516 C.ar      1 <1>         0.2214
     14 C12         0.5192    3.9533    5.6161 C.ar      1 <1>         0.2171
     15 C13         0.2455    3.6005    4.3076 C.ar      1 <1>         0.1979
     16 F1         -0.9625    3.0905    3.9825 F         1 <1>        -0.2152
     17 F2         -0.4231    3.7880    6.5700 F         1 <1>        -0.2243
     18 F3          2.0201    4.8204    7.2320 F         1 <1>        -0.2139
     19 F4          3.9373    5.1616    5.3133 F         1 <1>        -0.2241
     20 F5          3.4249    4.4593    2.7215 F         1 <1>        -0.2144
     21 N2          2.3644   -0.2187   -2.6737 N.2       1 <1>        -0.3348
     22 C14         1.7957   -0.1725   -3.8503 C.2       1 <1>         0.0895
     23 N3          0.7297    0.6773   -3.8189 N.pl3     1 <1>        -0.3050
     24 H1          0.1199    0.8921   -4.5817 H         1 <1>         0.3497
     25 O2          2.2014   -0.8693   -4.9366 O.3       1 <1>        -0.3530
     26 H2         -0.6874    3.0914   -0.0900 H         1 <1>         0.1541
     27 H3         -1.0206    2.5281   -2.4576 H         1 <1>         0.1400
     28 H4          2.6986    0.4879    0.0905 H         1 <1>         0.1561
     29 H5          1.5244    1.4792    2.1159 H         1 <1>         0.3338
     30 H6          2.8464   -0.4022   -5.4851 H         1 <1>         0.4045
@<TRIPOS>BOND
     1    1    6 ar
     2    1    2 ar
     3    1   26 1
     4    2    3 ar
     5    2   27 1
     6    3   23 1
     7    3    4 ar
     8    4    5 ar
     9    4   21 1
    10    5    6 ar
    11    5   28 1
    12    6    7 1
    13    7    8 am
    14    7   29 1
    15    8    9 2
    16    8   10 1
    17   10   15 ar
    18   10   11 ar
    19   11   12 ar
    20   11   20 1
    21   12   13 ar
    22   12   19 1
    23   13   14 ar
    24   13   18 1
    25   14   15 ar
    26   14   17 1
    27   15   16 1
    28   21   22 2
    29   22   23 1
    30   22   25 1
    31   23   24 1
    32   25   30 1
@<TRIPOS>Similarity
0.8965
@<TRIPOS>ShapeSim
0.5779
@<TRIPOS>PharmSim
0.3186
# END
# Name:		ZINC04597203
# Created and modified by SHAFTS on Mon Jun 23 14:53:19 2014

# 

@<TRIPOS>MOLECULE
ZINC04597203
   30    32     0
SMALL
USER_CHARGE


@<TRIPOS>ATOM
      1 C1         -0.0194    2.3960   -0.5764 C.ar      1 <1>        -0.0479
      2 C2         -0.2077    2.0800   -1.9054 C.ar      1 <1>        -0.0546
      3 C3          0.6488    1.1879   -2.5328 C.ar      1 <1>        -0.0253
      4 C4          1.7065    0.6047   -1.8154 C.ar      1 <1>        -0.0008
      5 C5          1.8883    0.9303   -0.4698 C.ar      1 <1>        -0.0204
      6 C6          1.0263    1.8221    0.1423 C.ar      1 <1>        -0.0299
      7 N1          1.2064    2.1504    1.4919 N.am      1 <1>        -0.2939
      8 C7          0.9380    3.3986    1.9235 C.2       1 <1>         0.1533
      9 O1          0.4608    4.2164    1.1603 O.2       1 <1>        -0.4433
     10 C8          1.2229    3.7725    3.3206 C.ar      1 <1>         0.1677
     11 C9          2.4740    4.2957    3.6671 C.ar      1 <1>         0.1985
     12 C10         2.7323    4.6507    4.9783 C.ar      1 <1>         0.2174
     13 C11         1.7592    4.4772    5.9516 C.ar      1 <1>         0.2214
     14 C12         0.5192    3.9533    5.6161 C.ar      1 <1>         0.2171
     15 C13         0.2455    3.6005    4.3076 C.ar      1 <1>         0.1979
     16 F1         -0.9625    3.0905    3.9825 F         1 <1>        -0.2152
     17 F2         -0.4231    3.7880    6.5700 F         1 <1>        -0.2243
     18 F3          2.0201    4.8204    7.2320 F         1 <1>        -0.2139
     19 F4          3.9373    5.1616    5.3133 F         1 <1>        -0.2241
     20 F5          3.4249    4.4593    2.7215 F         1 <1>        -0.2144
     21 N2          2.3644   -0.2187   -2.6737 N.2       1 <1>        -0.3348
     22 C14         1.7957   -0.1725   -3.8503 C.2       1 <1>         0.0895
     23 N3          0.7297    0.6773   -3.8189 N.pl3     1 <1>        -0.3050
     24 H1          0.1199    0.8921   -4.5817 H         1 <1>         0.3497
     25 O2          2.2014   -0.8693   -4.9366 O.3       1 <1>        -0.3530
     26 H2         -0.6874    3.0914   -0.0900 H         1 <1>         0.1541
     27 H3         -1.0206    2.5281   -2.4576 H         1 <1>         0.1400
     28 H4          2.6986    0.4879    0.0905 H         1 <1>         0.1561
     29 H5          1.5244    1.4792    2.1159 H         1 <1>         0.3338
     30 H6          2.8464   -0.4022   -5.4851 H         1 <1>         0.4045
@<TRIPOS>BOND
     1    1    6 ar
     2    1    2 ar
     3    1   26 1
     4    2    3 ar
     5    2   27 1
     6    3   23 1
     7    3    4 ar
     8    4    5 ar
     9    4   21 1
    10    5    6 ar
    11    5   28 1
    12    6    7 1
    13    7    8 am
    14    7   29 1
    15    8    9 2
    16    8   10 1
    17   10   15 ar
    18   10   11 ar
    19   11   12 ar
    20   11   20 1
    21   12   13 ar
    22   12   19 1
    23   13   14 ar
    24   13   18 1
    25   14   15 ar
    26   14   17 1
    27   15   16 1
    28   21   22 2
    29   22   23 1
    30   22   25 1
    31   23   24 1
    32   25   30 1
@<TRIPOS>Similarity
0.8965
@<TRIPOS>ShapeSim
0.5779
@<TRIPOS>PharmSim
0.3186
# END
# Name:		ZINC02503793
# Created and modified by SHAFTS on Mon Jun 23 14:53:19 2014

# 

@<TRIPOS>MOLECULE
ZINC02503793
   31    34     0
SMALL
USER_CHARGE


@<TRIPOS>ATOM
      1 C1          2.6365    6.1760   -2.8156 C.ar      1 <1>        -0.0937
      2 C2          1.7657    7.0296   -2.1530 C.ar      1 <1>        -0.0894
      3 C3          1.5066    6.8647   -0.8219 C.ar      1 <1>        -0.0597
      4 C4          2.1175    5.8240   -0.1174 C.ar      1 <1>        -0.0193
      5 C5          2.9945    4.9558   -0.7892 C.ar      1 <1>        -0.0402
      6 C6          3.2459    5.1391   -2.1423 C.ar      1 <1>        -0.0730
      7 N1          3.4302    4.0481    0.1554 N.pl3     1 <1>        -0.3361
      8 H1          4.0673    3.2928    0.0020 H         1 <1>         0.3453
      9 C7          2.8322    4.3719    1.3336 C.2       1 <1>         0.0087
     10 N2          2.0644    5.4102    1.1749 N.2       1 <1>        -0.3708
     11 C8          3.0305    3.6355    2.6334 C.3       1 <1>         0.0996
     12 S1          4.4214    4.3690    3.5378 S.3       1 <1>        -0.0494
     13 C9          4.5234    3.4109    5.0130 C.2       1 <1>         0.0523
     14 N3          3.7225    2.4040    5.3186 N.2       1 <1>        -0.3888
     15 C10         4.1026    1.9144    6.5155 C.2       1 <1>         0.0100
     16 C11         3.6535    0.8812    7.3332 C.2       1 <1>        -0.0342
     17 C12         4.3006    0.6547    8.5448 C.2       1 <1>        -0.0417
     18 C13         5.3524    1.4314    8.9190 C.2       1 <1>        -0.0218
     19 N4          5.7988    2.4337    8.1405 N.pl3     1 <1>        -0.3043
     20 H2          6.5512    2.9710    8.4337 H         1 <1>         0.3719
     21 C14         5.2031    2.7023    6.9413 C.2       1 <1>         0.0231
     22 N5          5.4155    3.5995    5.9854 N.2       1 <1>        -0.3618
     23 H3          2.8344    6.3224   -3.8672 H         1 <1>         0.1275
     24 H4          1.2916    7.8351   -2.6939 H         1 <1>         0.1225
     25 H5          0.8306    7.5374   -0.3149 H         1 <1>         0.1434
     26 H6          3.9195    4.4751   -2.6637 H         1 <1>         0.1260
     27 H7          2.1251    3.7111    3.2356 H         1 <1>         0.1525
     28 H8          3.2435    2.5864    2.4278 H         1 <1>         0.1412
     29 H9          2.8181    0.2661    7.0329 H         1 <1>         0.1817
     30 H10         3.9651   -0.1424    9.1917 H         1 <1>         0.1457
     31 H11         5.8407    1.2391    9.8629 H         1 <1>         0.2331
@<TRIPOS>BOND
     1    1    6 ar
     2    1    2 ar
     3    1   23 1
     4    2    3 ar
     5    2   24 1
     6    3    4 ar
     7    3   25 1
     8    4   10 1
     9    4    5 ar
    10    5    6 ar
    11    5    7 1
    12    6   26 1
    13    7    8 1
    14    7    9 1
    15    9   10 2
    16    9   11 1
    17   11   12 1
    18   11   27 1
    19   11   28 1
    20   12   13 1
    21   13   22 1
    22   13   14 2
    23   14   15 1
    24   15   21 1
    25   15   16 2
    26   16   17 1
    27   16   29 1
    28   17   18 2
    29   17   30 1
    30   18   19 1
    31   18   31 1
    32   19   20 1
    33   19   21 1
    34   21   22 2
@<TRIPOS>Similarity
0.7779
@<TRIPOS>ShapeSim
0.4487
@<TRIPOS>PharmSim
0.3292
# END
# Name:		ZINC02503793
# Created and modified by SHAFTS on Mon Jun 23 14:53:19 2014

# 

@<TRIPOS>MOLECULE
ZINC02503793
   31    34     0
SMALL
USER_CHARGE


@<TRIPOS>ATOM
      1 C1          2.6365    6.1760   -2.8156 C.ar      1 <1>        -0.0937
      2 C2          1.7657    7.0296   -2.1530 C.ar      1 <1>        -0.0894
      3 C3          1.5066    6.8647   -0.8219 C.ar      1 <1>        -0.0597
      4 C4          2.1175    5.8240   -0.1174 C.ar      1 <1>        -0.0193
      5 C5          2.9945    4.9558   -0.7892 C.ar      1 <1>        -0.0402
      6 C6          3.2459    5.1391   -2.1423 C.ar      1 <1>        -0.0730
      7 N1          3.4302    4.0481    0.1554 N.pl3     1 <1>        -0.3361
      8 H1          4.0673    3.2928    0.0020 H         1 <1>         0.3453
      9 C7          2.8322    4.3719    1.3336 C.2       1 <1>         0.0087
     10 N2          2.0644    5.4102    1.1749 N.2       1 <1>        -0.3708
     11 C8          3.0305    3.6355    2.6334 C.3       1 <1>         0.0996
     12 S1          4.4214    4.3690    3.5378 S.3       1 <1>        -0.0494
     13 C9          4.5234    3.4109    5.0130 C.2       1 <1>         0.0523
     14 N3          3.7225    2.4040    5.3186 N.2       1 <1>        -0.3888
     15 C10         4.1026    1.9144    6.5155 C.2       1 <1>         0.0100
     16 C11         3.6535    0.8812    7.3332 C.2       1 <1>        -0.0342
     17 C12         4.3006    0.6547    8.5448 C.2       1 <1>        -0.0417
     18 C13         5.3524    1.4314    8.9190 C.2       1 <1>        -0.0218
     19 N4          5.7988    2.4337    8.1405 N.pl3     1 <1>        -0.3043
     20 H2          6.5512    2.9710    8.4337 H         1 <1>         0.3719
     21 C14         5.2031    2.7023    6.9413 C.2       1 <1>         0.0231
     22 N5          5.4155    3.5995    5.9854 N.2       1 <1>        -0.3618
     23 H3          2.8344    6.3224   -3.8672 H         1 <1>         0.1275
     24 H4          1.2916    7.8351   -2.6939 H         1 <1>         0.1225
     25 H5          0.8306    7.5374   -0.3149 H         1 <1>         0.1434
     26 H6          3.9195    4.4751   -2.6637 H         1 <1>         0.1260
     27 H7          2.1251    3.7111    3.2356 H         1 <1>         0.1525
     28 H8          3.2435    2.5864    2.4278 H         1 <1>         0.1412
     29 H9          2.8181    0.2661    7.0329 H         1 <1>         0.1817
     30 H10         3.9651   -0.1424    9.1917 H         1 <1>         0.1457
     31 H11         5.8407    1.2391    9.8629 H         1 <1>         0.2331
@<TRIPOS>BOND
     1    1    6 ar
     2    1    2 ar
     3    1   23 1
     4    2    3 ar
     5    2   24 1
     6    3    4 ar
     7    3   25 1
     8    4   10 1
     9    4    5 ar
    10    5    6 ar
    11    5    7 1
    12    6   26 1
    13    7    8 1
    14    7    9 1
    15    9   10 2
    16    9   11 1
    17   11   12 1
    18   11   27 1
    19   11   28 1
    20   12   13 1
    21   13   22 1
    22   13   14 2
    23   14   15 1
    24   15   21 1
    25   15   16 2
    26   16   17 1
    27   16   29 1
    28   17   18 2
    29   17   30 1
    30   18   19 1
    31   18   31 1
    32   19   20 1
    33   19   21 1
    34   21   22 2
@<TRIPOS>Similarity
0.7779
@<TRIPOS>ShapeSim
0.4487
@<TRIPOS>PharmSim
0.3292
# END
# Name:		ZINC02503793
# Created and modified by SHAFTS on Mon Jun 23 14:53:19 2014

# 

@<TRIPOS>MOLECULE
ZINC02503793
   31    34     0
SMALL
USER_CHARGE


@<TRIPOS>ATOM
      1 C1          2.6365    6.1760   -2.8156 C.ar      1 <1>        -0.0937
      2 C2          1.7657    7.0296   -2.1530 C.ar      1 <1>        -0.0894
      3 C3          1.5066    6.8647   -0.8219 C.ar      1 <1>        -0.0597
      4 C4          2.1175    5.8240   -0.1174 C.ar      1 <1>        -0.0193
      5 C5          2.9945    4.9558   -0.7892 C.ar      1 <1>        -0.0402
      6 C6          3.2459    5.1391   -2.1423 C.ar      1 <1>        -0.0730
      7 N1          3.4302    4.0481    0.1554 N.pl3     1 <1>        -0.3361
      8 H1          4.0673    3.2928    0.0020 H         1 <1>         0.3453
      9 C7          2.8322    4.3719    1.3336 C.2       1 <1>         0.0087
     10 N2          2.0644    5.4102    1.1749 N.2       1 <1>        -0.3708
     11 C8          3.0305    3.6355    2.6334 C.3       1 <1>         0.0996
     12 S1          4.4214    4.3690    3.5378 S.3       1 <1>        -0.0494
     13 C9          4.5234    3.4109    5.0130 C.2       1 <1>         0.0523
     14 N3          3.7225    2.4040    5.3186 N.2       1 <1>        -0.3888
     15 C10         4.1026    1.9144    6.5155 C.2       1 <1>         0.0100
     16 C11         3.6535    0.8812    7.3332 C.2       1 <1>        -0.0342
     17 C12         4.3006    0.6547    8.5448 C.2       1 <1>        -0.0417
     18 C13         5.3524    1.4314    8.9190 C.2       1 <1>        -0.0218
     19 N4          5.7988    2.4337    8.1405 N.pl3     1 <1>        -0.3043
     20 H2          6.5512    2.9710    8.4337 H         1 <1>         0.3719
     21 C14         5.2031    2.7023    6.9413 C.2       1 <1>         0.0231
     22 N5          5.4155    3.5995    5.9854 N.2       1 <1>        -0.3618
     23 H3          2.8344    6.3224   -3.8672 H         1 <1>         0.1275
     24 H4          1.2916    7.8351   -2.6939 H         1 <1>         0.1225
     25 H5          0.8306    7.5374   -0.3149 H         1 <1>         0.1434
     26 H6          3.9195    4.4751   -2.6637 H         1 <1>         0.1260
     27 H7          2.1251    3.7111    3.2356 H         1 <1>         0.1525
     28 H8          3.2435    2.5864    2.4278 H         1 <1>         0.1412
     29 H9          2.8181    0.2661    7.0329 H         1 <1>         0.1817
     30 H10         3.9651   -0.1424    9.1917 H         1 <1>         0.1457
     31 H11         5.8407    1.2391    9.8629 H         1 <1>         0.2331
@<TRIPOS>BOND
     1    1    6 ar
     2    1    2 ar
     3    1   23 1
     4    2    3 ar
     5    2   24 1
     6    3    4 ar
     7    3   25 1
     8    4   10 1
     9    4    5 ar
    10    5    6 ar
    11    5    7 1
    12    6   26 1
    13    7    8 1
    14    7    9 1
    15    9   10 2
    16    9   11 1
    17   11   12 1
    18   11   27 1
    19   11   28 1
    20   12   13 1
    21   13   22 1
    22   13   14 2
    23   14   15 1
    24   15   21 1
    25   15   16 2
    26   16   17 1
    27   16   29 1
    28   17   18 2
    29   17   30 1
    30   18   19 1
    31   18   31 1
    32   19   20 1
    33   19   21 1
    34   21   22 2
@<TRIPOS>Similarity
0.7779
@<TRIPOS>ShapeSim
0.4487
@<TRIPOS>PharmSim
0.3292
# END
# Name:		ZINC02503793
# Created and modified by SHAFTS on Mon Jun 23 14:53:19 2014

# 

@<TRIPOS>MOLECULE
ZINC02503793
   31    34     0
SMALL
USER_CHARGE


@<TRIPOS>ATOM
      1 C1          2.6365    6.1760   -2.8156 C.ar      1 <1>        -0.0937
      2 C2          1.7657    7.0296   -2.1530 C.ar      1 <1>        -0.0894
      3 C3          1.5066    6.8647   -0.8219 C.ar      1 <1>        -0.0597
      4 C4          2.1175    5.8240   -0.1174 C.ar      1 <1>        -0.0193
      5 C5          2.9945    4.9558   -0.7892 C.ar      1 <1>        -0.0402
      6 C6          3.2459    5.1391   -2.1423 C.ar      1 <1>        -0.0730
      7 N1          3.4302    4.0481    0.1554 N.pl3     1 <1>        -0.3361
      8 H1          4.0673    3.2928    0.0020 H         1 <1>         0.3453
      9 C7          2.8322    4.3719    1.3336 C.2       1 <1>         0.0087
     10 N2          2.0644    5.4102    1.1749 N.2       1 <1>        -0.3708
     11 C8          3.0305    3.6355    2.6334 C.3       1 <1>         0.0996
     12 S1          4.4214    4.3690    3.5378 S.3       1 <1>        -0.0494
     13 C9          4.5234    3.4109    5.0130 C.2       1 <1>         0.0523
     14 N3          3.7225    2.4040    5.3186 N.2       1 <1>        -0.3888
     15 C10         4.1026    1.9144    6.5155 C.2       1 <1>         0.0100
     16 C11         3.6535    0.8812    7.3332 C.2       1 <1>        -0.0342
     17 C12         4.3006    0.6547    8.5448 C.2       1 <1>        -0.0417
     18 C13         5.3524    1.4314    8.9190 C.2       1 <1>        -0.0218
     19 N4          5.7988    2.4337    8.1405 N.pl3     1 <1>        -0.3043
     20 H2          6.5512    2.9710    8.4337 H         1 <1>         0.3719
     21 C14         5.2031    2.7023    6.9413 C.2       1 <1>         0.0231
     22 N5          5.4155    3.5995    5.9854 N.2       1 <1>        -0.3618
     23 H3          2.8344    6.3224   -3.8672 H         1 <1>         0.1275
     24 H4          1.2916    7.8351   -2.6939 H         1 <1>         0.1225
     25 H5          0.8306    7.5374   -0.3149 H         1 <1>         0.1434
     26 H6          3.9195    4.4751   -2.6637 H         1 <1>         0.1260
     27 H7          2.1251    3.7111    3.2356 H         1 <1>         0.1525
     28 H8          3.2435    2.5864    2.4278 H         1 <1>         0.1412
     29 H9          2.8181    0.2661    7.0329 H         1 <1>         0.1817
     30 H10         3.9651   -0.1424    9.1917 H         1 <1>         0.1457
     31 H11         5.8407    1.2391    9.8629 H         1 <1>         0.2331
@<TRIPOS>BOND
     1    1    6 ar
     2    1    2 ar
     3    1   23 1
     4    2    3 ar
     5    2   24 1
     6    3    4 ar
     7    3   25 1
     8    4   10 1
     9    4    5 ar
    10    5    6 ar
    11    5    7 1
    12    6   26 1
    13    7    8 1
    14    7    9 1
    15    9   10 2
    16    9   11 1
    17   11   12 1
    18   11   27 1
    19   11   28 1
    20   12   13 1
    21   13   22 1
    22   13   14 2
    23   14   15 1
    24   15   21 1
    25   15   16 2
    26   16   17 1
    27   16   29 1
    28   17   18 2
    29   17   30 1
    30   18   19 1
    31   18   31 1
    32   19   20 1
    33   19   21 1
    34   21   22 2
@<TRIPOS>Similarity
0.7779
@<TRIPOS>ShapeSim
0.4487
@<TRIPOS>PharmSim
0.3292
# END
# Name:		ZINC02503793
# Created and modified by SHAFTS on Mon Jun 23 14:53:19 2014

# 

@<TRIPOS>MOLECULE
ZINC02503793
   31    34     0
SMALL
USER_CHARGE


@<TRIPOS>ATOM
      1 C1          2.6365    6.1760   -2.8156 C.ar      1 <1>        -0.0937
      2 C2          1.7657    7.0296   -2.1530 C.ar      1 <1>        -0.0894
      3 C3          1.5066    6.8647   -0.8219 C.ar      1 <1>        -0.0597
      4 C4          2.1175    5.8240   -0.1174 C.ar      1 <1>        -0.0193
      5 C5          2.9945    4.9558   -0.7892 C.ar      1 <1>        -0.0402
      6 C6          3.2459    5.1391   -2.1423 C.ar      1 <1>        -0.0730
      7 N1          3.4302    4.0481    0.1554 N.pl3     1 <1>        -0.3361
      8 H1          4.0673    3.2928    0.0020 H         1 <1>         0.3453
      9 C7          2.8322    4.3719    1.3336 C.2       1 <1>         0.0087
     10 N2          2.0644    5.4102    1.1749 N.2       1 <1>        -0.3708
     11 C8          3.0305    3.6355    2.6334 C.3       1 <1>         0.0996
     12 S1          4.4214    4.3690    3.5378 S.3       1 <1>        -0.0494
     13 C9          4.5234    3.4109    5.0130 C.2       1 <1>         0.0523
     14 N3          3.7225    2.4040    5.3186 N.2       1 <1>        -0.3888
     15 C10         4.1026    1.9144    6.5155 C.2       1 <1>         0.0100
     16 C11         3.6535    0.8812    7.3332 C.2       1 <1>        -0.0342
     17 C12         4.3006    0.6547    8.5448 C.2       1 <1>        -0.0417
     18 C13         5.3524    1.4314    8.9190 C.2       1 <1>        -0.0218
     19 N4          5.7988    2.4337    8.1405 N.pl3     1 <1>        -0.3043
     20 H2          6.5512    2.9710    8.4337 H         1 <1>         0.3719
     21 C14         5.2031    2.7023    6.9413 C.2       1 <1>         0.0231
     22 N5          5.4155    3.5995    5.9854 N.2       1 <1>        -0.3618
     23 H3          2.8344    6.3224   -3.8672 H         1 <1>         0.1275
     24 H4          1.2916    7.8351   -2.6939 H         1 <1>         0.1225
     25 H5          0.8306    7.5374   -0.3149 H         1 <1>         0.1434
     26 H6          3.9195    4.4751   -2.6637 H         1 <1>         0.1260
     27 H7          2.1251    3.7111    3.2356 H         1 <1>         0.1525
     28 H8          3.2435    2.5864    2.4278 H         1 <1>         0.1412
     29 H9          2.8181    0.2661    7.0329 H         1 <1>         0.1817
     30 H10         3.9651   -0.1424    9.1917 H         1 <1>         0.1457
     31 H11         5.8407    1.2391    9.8629 H         1 <1>         0.2331
@<TRIPOS>BOND
     1    1    6 ar
     2    1    2 ar
     3    1   23 1
     4    2    3 ar
     5    2   24 1
     6    3    4 ar
     7    3   25 1
     8    4   10 1
     9    4    5 ar
    10    5    6 ar
    11    5    7 1
    12    6   26 1
    13    7    8 1
    14    7    9 1
    15    9   10 2
    16    9   11 1
    17   11   12 1
    18   11   27 1
    19   11   28 1
    20   12   13 1
    21   13   22 1
    22   13   14 2
    23   14   15 1
    24   15   21 1
    25   15   16 2
    26   16   17 1
    27   16   29 1
    28   17   18 2
    29   17   30 1
    30   18   19 1
    31   18   31 1
    32   19   20 1
    33   19   21 1
    34   21   22 2
@<TRIPOS>Similarity
0.7779
@<TRIPOS>ShapeSim
0.4487
@<TRIPOS>PharmSim
0.3292
# END
# Name:		ZINC02503793
# Created and modified by SHAFTS on Mon Jun 23 14:53:19 2014

# 

@<TRIPOS>MOLECULE
ZINC02503793
   31    34     0
SMALL
USER_CHARGE


@<TRIPOS>ATOM
      1 C1          2.6365    6.1760   -2.8156 C.ar      1 <1>        -0.0937
      2 C2          1.7657    7.0296   -2.1530 C.ar      1 <1>        -0.0894
      3 C3          1.5066    6.8647   -0.8219 C.ar      1 <1>        -0.0597
      4 C4          2.1175    5.8240   -0.1174 C.ar      1 <1>        -0.0193
      5 C5          2.9945    4.9558   -0.7892 C.ar      1 <1>        -0.0402
      6 C6          3.2459    5.1391   -2.1423 C.ar      1 <1>        -0.0730
      7 N1          3.4302    4.0481    0.1554 N.pl3     1 <1>        -0.3361
      8 H1          4.0673    3.2928    0.0020 H         1 <1>         0.3453
      9 C7          2.8322    4.3719    1.3336 C.2       1 <1>         0.0087
     10 N2          2.0644    5.4102    1.1749 N.2       1 <1>        -0.3708
     11 C8          3.0305    3.6355    2.6334 C.3       1 <1>         0.0996
     12 S1          4.4214    4.3690    3.5378 S.3       1 <1>        -0.0494
     13 C9          4.5234    3.4109    5.0130 C.2       1 <1>         0.0523
     14 N3          3.7225    2.4040    5.3186 N.2       1 <1>        -0.3888
     15 C10         4.1026    1.9144    6.5155 C.2       1 <1>         0.0100
     16 C11         3.6535    0.8812    7.3332 C.2       1 <1>        -0.0342
     17 C12         4.3006    0.6547    8.5448 C.2       1 <1>        -0.0417
     18 C13         5.3524    1.4314    8.9190 C.2       1 <1>        -0.0218
     19 N4          5.7988    2.4337    8.1405 N.pl3     1 <1>        -0.3043
     20 H2          6.5512    2.9710    8.4337 H         1 <1>         0.3719
     21 C14         5.2031    2.7023    6.9413 C.2       1 <1>         0.0231
     22 N5          5.4155    3.5995    5.9854 N.2       1 <1>        -0.3618
     23 H3          2.8344    6.3224   -3.8672 H         1 <1>         0.1275
     24 H4          1.2916    7.8351   -2.6939 H         1 <1>         0.1225
     25 H5          0.8306    7.5374   -0.3149 H         1 <1>         0.1434
     26 H6          3.9195    4.4751   -2.6637 H         1 <1>         0.1260
     27 H7          2.1251    3.7111    3.2356 H         1 <1>         0.1525
     28 H8          3.2435    2.5864    2.4278 H         1 <1>         0.1412
     29 H9          2.8181    0.2661    7.0329 H         1 <1>         0.1817
     30 H10         3.9651   -0.1424    9.1917 H         1 <1>         0.1457
     31 H11         5.8407    1.2391    9.8629 H         1 <1>         0.2331
@<TRIPOS>BOND
     1    1    6 ar
     2    1    2 ar
     3    1   23 1
     4    2    3 ar
     5    2   24 1
     6    3    4 ar
     7    3   25 1
     8    4   10 1
     9    4    5 ar
    10    5    6 ar
    11    5    7 1
    12    6   26 1
    13    7    8 1
    14    7    9 1
    15    9   10 2
    16    9   11 1
    17   11   12 1
    18   11   27 1
    19   11   28 1
    20   12   13 1
    21   13   22 1
    22   13   14 2
    23   14   15 1
    24   15   21 1
    25   15   16 2
    26   16   17 1
    27   16   29 1
    28   17   18 2
    29   17   30 1
    30   18   19 1
    31   18   31 1
    32   19   20 1
    33   19   21 1
    34   21   22 2
@<TRIPOS>Similarity
0.7779
@<TRIPOS>ShapeSim
0.4487
@<TRIPOS>PharmSim
0.3292
# END
# Name:		ZINC02503793
# Created and modified by SHAFTS on Mon Jun 23 14:53:19 2014

# 

@<TRIPOS>MOLECULE
ZINC02503793
   31    34     0
SMALL
USER_CHARGE


@<TRIPOS>ATOM
      1 C1          2.6365    6.1760   -2.8156 C.ar      1 <1>        -0.0937
      2 C2          1.7657    7.0296   -2.1530 C.ar      1 <1>        -0.0894
      3 C3          1.5066    6.8647   -0.8219 C.ar      1 <1>        -0.0597
      4 C4          2.1175    5.8240   -0.1174 C.ar      1 <1>        -0.0193
      5 C5          2.9945    4.9558   -0.7892 C.ar      1 <1>        -0.0402
      6 C6          3.2459    5.1391   -2.1423 C.ar      1 <1>        -0.0730
      7 N1          3.4302    4.0481    0.1554 N.pl3     1 <1>        -0.3361
      8 H1          4.0673    3.2928    0.0020 H         1 <1>         0.3453
      9 C7          2.8322    4.3719    1.3336 C.2       1 <1>         0.0087
     10 N2          2.0644    5.4102    1.1749 N.2       1 <1>        -0.3708
     11 C8          3.0305    3.6355    2.6334 C.3       1 <1>         0.0996
     12 S1          4.4214    4.3690    3.5378 S.3       1 <1>        -0.0494
     13 C9          4.5234    3.4109    5.0130 C.2       1 <1>         0.0523
     14 N3          3.7225    2.4040    5.3186 N.2       1 <1>        -0.3888
     15 C10         4.1026    1.9144    6.5155 C.2       1 <1>         0.0100
     16 C11         3.6535    0.8812    7.3332 C.2       1 <1>        -0.0342
     17 C12         4.3006    0.6547    8.5448 C.2       1 <1>        -0.0417
     18 C13         5.3524    1.4314    8.9190 C.2       1 <1>        -0.0218
     19 N4          5.7988    2.4337    8.1405 N.pl3     1 <1>        -0.3043
     20 H2          6.5512    2.9710    8.4337 H         1 <1>         0.3719
     21 C14         5.2031    2.7023    6.9413 C.2       1 <1>         0.0231
     22 N5          5.4155    3.5995    5.9854 N.2       1 <1>        -0.3618
     23 H3          2.8344    6.3224   -3.8672 H         1 <1>         0.1275
     24 H4          1.2916    7.8351   -2.6939 H         1 <1>         0.1225
     25 H5          0.8306    7.5374   -0.3149 H         1 <1>         0.1434
     26 H6          3.9195    4.4751   -2.6637 H         1 <1>         0.1260
     27 H7          2.1251    3.7111    3.2356 H         1 <1>         0.1525
     28 H8          3.2435    2.5864    2.4278 H         1 <1>         0.1412
     29 H9          2.8181    0.2661    7.0329 H         1 <1>         0.1817
     30 H10         3.9651   -0.1424    9.1917 H         1 <1>         0.1457
     31 H11         5.8407    1.2391    9.8629 H         1 <1>         0.2331
@<TRIPOS>BOND
     1    1    6 ar
     2    1    2 ar
     3    1   23 1
     4    2    3 ar
     5    2   24 1
     6    3    4 ar
     7    3   25 1
     8    4   10 1
     9    4    5 ar
    10    5    6 ar
    11    5    7 1
    12    6   26 1
    13    7    8 1
    14    7    9 1
    15    9   10 2
    16    9   11 1
    17   11   12 1
    18   11   27 1
    19   11   28 1
    20   12   13 1
    21   13   22 1
    22   13   14 2
    23   14   15 1
    24   15   21 1
    25   15   16 2
    26   16   17 1
    27   16   29 1
    28   17   18 2
    29   17   30 1
    30   18   19 1
    31   18   31 1
    32   19   20 1
    33   19   21 1
    34   21   22 2
@<TRIPOS>Similarity
0.7779
@<TRIPOS>ShapeSim
0.4487
@<TRIPOS>PharmSim
0.3292
# END
# Name:		ZINC02503793
# Created and modified by SHAFTS on Mon Jun 23 14:53:19 2014

# 

@<TRIPOS>MOLECULE
ZINC02503793
   31    34     0
SMALL
USER_CHARGE


@<TRIPOS>ATOM
      1 C1          2.6365    6.1760   -2.8156 C.ar      1 <1>        -0.0937
      2 C2          1.7657    7.0296   -2.1530 C.ar      1 <1>        -0.0894
      3 C3          1.5066    6.8647   -0.8219 C.ar      1 <1>        -0.0597
      4 C4          2.1175    5.8240   -0.1174 C.ar      1 <1>        -0.0193
      5 C5          2.9945    4.9558   -0.7892 C.ar      1 <1>        -0.0402
      6 C6          3.2459    5.1391   -2.1423 C.ar      1 <1>        -0.0730
      7 N1          3.4302    4.0481    0.1554 N.pl3     1 <1>        -0.3361
      8 H1          4.0673    3.2928    0.0020 H         1 <1>         0.3453
      9 C7          2.8322    4.3719    1.3336 C.2       1 <1>         0.0087
     10 N2          2.0644    5.4102    1.1749 N.2       1 <1>        -0.3708
     11 C8          3.0305    3.6355    2.6334 C.3       1 <1>         0.0996
     12 S1          4.4214    4.3690    3.5378 S.3       1 <1>        -0.0494
     13 C9          4.5234    3.4109    5.0130 C.2       1 <1>         0.0523
     14 N3          3.7225    2.4040    5.3186 N.2       1 <1>        -0.3888
     15 C10         4.1026    1.9144    6.5155 C.2       1 <1>         0.0100
     16 C11         3.6535    0.8812    7.3332 C.2       1 <1>        -0.0342
     17 C12         4.3006    0.6547    8.5448 C.2       1 <1>        -0.0417
     18 C13         5.3524    1.4314    8.9190 C.2       1 <1>        -0.0218
     19 N4          5.7988    2.4337    8.1405 N.pl3     1 <1>        -0.3043
     20 H2          6.5512    2.9710    8.4337 H         1 <1>         0.3719
     21 C14         5.2031    2.7023    6.9413 C.2       1 <1>         0.0231
     22 N5          5.4155    3.5995    5.9854 N.2       1 <1>        -0.3618
     23 H3          2.8344    6.3224   -3.8672 H         1 <1>         0.1275
     24 H4          1.2916    7.8351   -2.6939 H         1 <1>         0.1225
     25 H5          0.8306    7.5374   -0.3149 H         1 <1>         0.1434
     26 H6          3.9195    4.4751   -2.6637 H         1 <1>         0.1260
     27 H7          2.1251    3.7111    3.2356 H         1 <1>         0.1525
     28 H8          3.2435    2.5864    2.4278 H         1 <1>         0.1412
     29 H9          2.8181    0.2661    7.0329 H         1 <1>         0.1817
     30 H10         3.9651   -0.1424    9.1917 H         1 <1>         0.1457
     31 H11         5.8407    1.2391    9.8629 H         1 <1>         0.2331
@<TRIPOS>BOND
     1    1    6 ar
     2    1    2 ar
     3    1   23 1
     4    2    3 ar
     5    2   24 1
     6    3    4 ar
     7    3   25 1
     8    4   10 1
     9    4    5 ar
    10    5    6 ar
    11    5    7 1
    12    6   26 1
    13    7    8 1
    14    7    9 1
    15    9   10 2
    16    9   11 1
    17   11   12 1
    18   11   27 1
    19   11   28 1
    20   12   13 1
    21   13   22 1
    22   13   14 2
    23   14   15 1
    24   15   21 1
    25   15   16 2
    26   16   17 1
    27   16   29 1
    28   17   18 2
    29   17   30 1
    30   18   19 1
    31   18   31 1
    32   19   20 1
    33   19   21 1
    34   21   22 2
@<TRIPOS>Similarity
0.7779
@<TRIPOS>ShapeSim
0.4487
@<TRIPOS>PharmSim
0.3292
# END
# Name:		ZINC02503793
# Created and modified by SHAFTS on Mon Jun 23 14:53:19 2014

# 

@<TRIPOS>MOLECULE
ZINC02503793
   31    34     0
SMALL
USER_CHARGE


@<TRIPOS>ATOM
      1 C1          2.6365    6.1760   -2.8156 C.ar      1 <1>        -0.0937
      2 C2          1.7657    7.0296   -2.1530 C.ar      1 <1>        -0.0894
      3 C3          1.5066    6.8647   -0.8219 C.ar      1 <1>        -0.0597
      4 C4          2.1175    5.8240   -0.1174 C.ar      1 <1>        -0.0193
      5 C5          2.9945    4.9558   -0.7892 C.ar      1 <1>        -0.0402
      6 C6          3.2459    5.1391   -2.1423 C.ar      1 <1>        -0.0730
      7 N1          3.4302    4.0481    0.1554 N.pl3     1 <1>        -0.3361
      8 H1          4.0673    3.2928    0.0020 H         1 <1>         0.3453
      9 C7          2.8322    4.3719    1.3336 C.2       1 <1>         0.0087
     10 N2          2.0644    5.4102    1.1749 N.2       1 <1>        -0.3708
     11 C8          3.0305    3.6355    2.6334 C.3       1 <1>         0.0996
     12 S1          4.4214    4.3690    3.5378 S.3       1 <1>        -0.0494
     13 C9          4.5234    3.4109    5.0130 C.2       1 <1>         0.0523
     14 N3          3.7225    2.4040    5.3186 N.2       1 <1>        -0.3888
     15 C10         4.1026    1.9144    6.5155 C.2       1 <1>         0.0100
     16 C11         3.6535    0.8812    7.3332 C.2       1 <1>        -0.0342
     17 C12         4.3006    0.6547    8.5448 C.2       1 <1>        -0.0417
     18 C13         5.3524    1.4314    8.9190 C.2       1 <1>        -0.0218
     19 N4          5.7988    2.4337    8.1405 N.pl3     1 <1>        -0.3043
     20 H2          6.5512    2.9710    8.4337 H         1 <1>         0.3719
     21 C14         5.2031    2.7023    6.9413 C.2       1 <1>         0.0231
     22 N5          5.4155    3.5995    5.9854 N.2       1 <1>        -0.3618
     23 H3          2.8344    6.3224   -3.8672 H         1 <1>         0.1275
     24 H4          1.2916    7.8351   -2.6939 H         1 <1>         0.1225
     25 H5          0.8306    7.5374   -0.3149 H         1 <1>         0.1434
     26 H6          3.9195    4.4751   -2.6637 H         1 <1>         0.1260
     27 H7          2.1251    3.7111    3.2356 H         1 <1>         0.1525
     28 H8          3.2435    2.5864    2.4278 H         1 <1>         0.1412
     29 H9          2.8181    0.2661    7.0329 H         1 <1>         0.1817
     30 H10         3.9651   -0.1424    9.1917 H         1 <1>         0.1457
     31 H11         5.8407    1.2391    9.8629 H         1 <1>         0.2331
@<TRIPOS>BOND
     1    1    6 ar
     2    1    2 ar
     3    1   23 1
     4    2    3 ar
     5    2   24 1
     6    3    4 ar
     7    3   25 1
     8    4   10 1
     9    4    5 ar
    10    5    6 ar
    11    5    7 1
    12    6   26 1
    13    7    8 1
    14    7    9 1
    15    9   10 2
    16    9   11 1
    17   11   12 1
    18   11   27 1
    19   11   28 1
    20   12   13 1
    21   13   22 1
    22   13   14 2
    23   14   15 1
    24   15   21 1
    25   15   16 2
    26   16   17 1
    27   16   29 1
    28   17   18 2
    29   17   30 1
    30   18   19 1
    31   18   31 1
    32   19   20 1
    33   19   21 1
    34   21   22 2
@<TRIPOS>Similarity
0.7779
@<TRIPOS>ShapeSim
0.4487
@<TRIPOS>PharmSim
0.3292
# END
# Name:		ZINC02503793
# Created and modified by SHAFTS on Mon Jun 23 14:53:19 2014

# 

@<TRIPOS>MOLECULE
ZINC02503793
   31    34     0
SMALL
USER_CHARGE


@<TRIPOS>ATOM
      1 C1          2.6365    6.1760   -2.8156 C.ar      1 <1>        -0.0937
      2 C2          1.7657    7.0296   -2.1530 C.ar      1 <1>        -0.0894
      3 C3          1.5066    6.8647   -0.8219 C.ar      1 <1>        -0.0597
      4 C4          2.1175    5.8240   -0.1174 C.ar      1 <1>        -0.0193
      5 C5          2.9945    4.9558   -0.7892 C.ar      1 <1>        -0.0402
      6 C6          3.2459    5.1391   -2.1423 C.ar      1 <1>        -0.0730
      7 N1          3.4302    4.0481    0.1554 N.pl3     1 <1>        -0.3361
      8 H1          4.0673    3.2928    0.0020 H         1 <1>         0.3453
      9 C7          2.8322    4.3719    1.3336 C.2       1 <1>         0.0087
     10 N2          2.0644    5.4102    1.1749 N.2       1 <1>        -0.3708
     11 C8          3.0305    3.6355    2.6334 C.3       1 <1>         0.0996
     12 S1          4.4214    4.3690    3.5378 S.3       1 <1>        -0.0494
     13 C9          4.5234    3.4109    5.0130 C.2       1 <1>         0.0523
     14 N3          3.7225    2.4040    5.3186 N.2       1 <1>        -0.3888
     15 C10         4.1026    1.9144    6.5155 C.2       1 <1>         0.0100
     16 C11         3.6535    0.8812    7.3332 C.2       1 <1>        -0.0342
     17 C12         4.3006    0.6547    8.5448 C.2       1 <1>        -0.0417
     18 C13         5.3524    1.4314    8.9190 C.2       1 <1>        -0.0218
     19 N4          5.7988    2.4337    8.1405 N.pl3     1 <1>        -0.3043
     20 H2          6.5512    2.9710    8.4337 H         1 <1>         0.3719
     21 C14         5.2031    2.7023    6.9413 C.2       1 <1>         0.0231
     22 N5          5.4155    3.5995    5.9854 N.2       1 <1>        -0.3618
     23 H3          2.8344    6.3224   -3.8672 H         1 <1>         0.1275
     24 H4          1.2916    7.8351   -2.6939 H         1 <1>         0.1225
     25 H5          0.8306    7.5374   -0.3149 H         1 <1>         0.1434
     26 H6          3.9195    4.4751   -2.6637 H         1 <1>         0.1260
     27 H7          2.1251    3.7111    3.2356 H         1 <1>         0.1525
     28 H8          3.2435    2.5864    2.4278 H         1 <1>         0.1412
     29 H9          2.8181    0.2661    7.0329 H         1 <1>         0.1817
     30 H10         3.9651   -0.1424    9.1917 H         1 <1>         0.1457
     31 H11         5.8407    1.2391    9.8629 H         1 <1>         0.2331
@<TRIPOS>BOND
     1    1    6 ar
     2    1    2 ar
     3    1   23 1
     4    2    3 ar
     5    2   24 1
     6    3    4 ar
     7    3   25 1
     8    4   10 1
     9    4    5 ar
    10    5    6 ar
    11    5    7 1
    12    6   26 1
    13    7    8 1
    14    7    9 1
    15    9   10 2
    16    9   11 1
    17   11   12 1
    18   11   27 1
    19   11   28 1
    20   12   13 1
    21   13   22 1
    22   13   14 2
    23   14   15 1
    24   15   21 1
    25   15   16 2
    26   16   17 1
    27   16   29 1
    28   17   18 2
    29   17   30 1
    30   18   19 1
    31   18   31 1
    32   19   20 1
    33   19   21 1
    34   21   22 2
@<TRIPOS>Similarity
0.7779
@<TRIPOS>ShapeSim
0.4487
@<TRIPOS>PharmSim
0.3292
# END
# Name:		ZINC02503793
# Created and modified by SHAFTS on Mon Jun 23 14:53:19 2014

# 

@<TRIPOS>MOLECULE
ZINC02503793
   31    34     0
SMALL
USER_CHARGE


@<TRIPOS>ATOM
      1 C1          2.6365    6.1760   -2.8156 C.ar      1 <1>        -0.0937
      2 C2          1.7657    7.0296   -2.1530 C.ar      1 <1>        -0.0894
      3 C3          1.5066    6.8647   -0.8219 C.ar      1 <1>        -0.0597
      4 C4          2.1175    5.8240   -0.1174 C.ar      1 <1>        -0.0193
      5 C5          2.9945    4.9558   -0.7892 C.ar      1 <1>        -0.0402
      6 C6          3.2459    5.1391   -2.1423 C.ar      1 <1>        -0.0730
      7 N1          3.4302    4.0481    0.1554 N.pl3     1 <1>        -0.3361
      8 H1          4.0673    3.2928    0.0020 H         1 <1>         0.3453
      9 C7          2.8322    4.3719    1.3336 C.2       1 <1>         0.0087
     10 N2          2.0644    5.4102    1.1749 N.2       1 <1>        -0.3708
     11 C8          3.0305    3.6355    2.6334 C.3       1 <1>         0.0996
     12 S1          4.4214    4.3690    3.5378 S.3       1 <1>        -0.0494
     13 C9          4.5234    3.4109    5.0130 C.2       1 <1>         0.0523
     14 N3          3.7225    2.4040    5.3186 N.2       1 <1>        -0.3888
     15 C10         4.1026    1.9144    6.5155 C.2       1 <1>         0.0100
     16 C11         3.6535    0.8812    7.3332 C.2       1 <1>        -0.0342
     17 C12         4.3006    0.6547    8.5448 C.2       1 <1>        -0.0417
     18 C13         5.3524    1.4314    8.9190 C.2       1 <1>        -0.0218
     19 N4          5.7988    2.4337    8.1405 N.pl3     1 <1>        -0.3043
     20 H2          6.5512    2.9710    8.4337 H         1 <1>         0.3719
     21 C14         5.2031    2.7023    6.9413 C.2       1 <1>         0.0231
     22 N5          5.4155    3.5995    5.9854 N.2       1 <1>        -0.3618
     23 H3          2.8344    6.3224   -3.8672 H         1 <1>         0.1275
     24 H4          1.2916    7.8351   -2.6939 H         1 <1>         0.1225
     25 H5          0.8306    7.5374   -0.3149 H         1 <1>         0.1434
     26 H6          3.9195    4.4751   -2.6637 H         1 <1>         0.1260
     27 H7          2.1251    3.7111    3.2356 H         1 <1>         0.1525
     28 H8          3.2435    2.5864    2.4278 H         1 <1>         0.1412
     29 H9          2.8181    0.2661    7.0329 H         1 <1>         0.1817
     30 H10         3.9651   -0.1424    9.1917 H         1 <1>         0.1457
     31 H11         5.8407    1.2391    9.8629 H         1 <1>         0.2331
@<TRIPOS>BOND
     1    1    6 ar
     2    1    2 ar
     3    1   23 1
     4    2    3 ar
     5    2   24 1
     6    3    4 ar
     7    3   25 1
     8    4   10 1
     9    4    5 ar
    10    5    6 ar
    11    5    7 1
    12    6   26 1
    13    7    8 1
    14    7    9 1
    15    9   10 2
    16    9   11 1
    17   11   12 1
    18   11   27 1
    19   11   28 1
    20   12   13 1
    21   13   22 1
    22   13   14 2
    23   14   15 1
    24   15   21 1
    25   15   16 2
    26   16   17 1
    27   16   29 1
    28   17   18 2
    29   17   30 1
    30   18   19 1
    31   18   31 1
    32   19   20 1
    33   19   21 1
    34   21   22 2
@<TRIPOS>Similarity
0.7779
@<TRIPOS>ShapeSim
0.4487
@<TRIPOS>PharmSim
0.3292
# END
# Name:		ZINC02503793
# Created and modified by SHAFTS on Mon Jun 23 14:53:19 2014

# 

@<TRIPOS>MOLECULE
ZINC02503793
   31    34     0
SMALL
USER_CHARGE


@<TRIPOS>ATOM
      1 C1          2.6365    6.1760   -2.8156 C.ar      1 <1>        -0.0937
      2 C2          1.7657    7.0296   -2.1530 C.ar      1 <1>        -0.0894
      3 C3          1.5066    6.8647   -0.8219 C.ar      1 <1>        -0.0597
      4 C4          2.1175    5.8240   -0.1174 C.ar      1 <1>        -0.0193
      5 C5          2.9945    4.9558   -0.7892 C.ar      1 <1>        -0.0402
      6 C6          3.2459    5.1391   -2.1423 C.ar      1 <1>        -0.0730
      7 N1          3.4302    4.0481    0.1554 N.pl3     1 <1>        -0.3361
      8 H1          4.0673    3.2928    0.0020 H         1 <1>         0.3453
      9 C7          2.8322    4.3719    1.3336 C.2       1 <1>         0.0087
     10 N2          2.0644    5.4102    1.1749 N.2       1 <1>        -0.3708
     11 C8          3.0305    3.6355    2.6334 C.3       1 <1>         0.0996
     12 S1          4.4214    4.3690    3.5378 S.3       1 <1>        -0.0494
     13 C9          4.5234    3.4109    5.0130 C.2       1 <1>         0.0523
     14 N3          3.7225    2.4040    5.3186 N.2       1 <1>        -0.3888
     15 C10         4.1026    1.9144    6.5155 C.2       1 <1>         0.0100
     16 C11         3.6535    0.8812    7.3332 C.2       1 <1>        -0.0342
     17 C12         4.3006    0.6547    8.5448 C.2       1 <1>        -0.0417
     18 C13         5.3524    1.4314    8.9190 C.2       1 <1>        -0.0218
     19 N4          5.7988    2.4337    8.1405 N.pl3     1 <1>        -0.3043
     20 H2          6.5512    2.9710    8.4337 H         1 <1>         0.3719
     21 C14         5.2031    2.7023    6.9413 C.2       1 <1>         0.0231
     22 N5          5.4155    3.5995    5.9854 N.2       1 <1>        -0.3618
     23 H3          2.8344    6.3224   -3.8672 H         1 <1>         0.1275
     24 H4          1.2916    7.8351   -2.6939 H         1 <1>         0.1225
     25 H5          0.8306    7.5374   -0.3149 H         1 <1>         0.1434
     26 H6          3.9195    4.4751   -2.6637 H         1 <1>         0.1260
     27 H7          2.1251    3.7111    3.2356 H         1 <1>         0.1525
     28 H8          3.2435    2.5864    2.4278 H         1 <1>         0.1412
     29 H9          2.8181    0.2661    7.0329 H         1 <1>         0.1817
     30 H10         3.9651   -0.1424    9.1917 H         1 <1>         0.1457
     31 H11         5.8407    1.2391    9.8629 H         1 <1>         0.2331
@<TRIPOS>BOND
     1    1    6 ar
     2    1    2 ar
     3    1   23 1
     4    2    3 ar
     5    2   24 1
     6    3    4 ar
     7    3   25 1
     8    4   10 1
     9    4    5 ar
    10    5    6 ar
    11    5    7 1
    12    6   26 1
    13    7    8 1
    14    7    9 1
    15    9   10 2
    16    9   11 1
    17   11   12 1
    18   11   27 1
    19   11   28 1
    20   12   13 1
    21   13   22 1
    22   13   14 2
    23   14   15 1
    24   15   21 1
    25   15   16 2
    26   16   17 1
    27   16   29 1
    28   17   18 2
    29   17   30 1
    30   18   19 1
    31   18   31 1
    32   19   20 1
    33   19   21 1
    34   21   22 2
@<TRIPOS>Similarity
0.7779
@<TRIPOS>ShapeSim
0.4487
@<TRIPOS>PharmSim
0.3292
# END
# Name:		ZINC02503793
# Created and modified by SHAFTS on Mon Jun 23 14:53:19 2014

# 

@<TRIPOS>MOLECULE
ZINC02503793
   31    34     0
SMALL
USER_CHARGE


@<TRIPOS>ATOM
      1 C1          2.6365    6.1760   -2.8156 C.ar      1 <1>        -0.0937
      2 C2          1.7657    7.0296   -2.1530 C.ar      1 <1>        -0.0894
      3 C3          1.5066    6.8647   -0.8219 C.ar      1 <1>        -0.0597
      4 C4          2.1175    5.8240   -0.1174 C.ar      1 <1>        -0.0193
      5 C5          2.9945    4.9558   -0.7892 C.ar      1 <1>        -0.0402
      6 C6          3.2459    5.1391   -2.1423 C.ar      1 <1>        -0.0730
      7 N1          3.4302    4.0481    0.1554 N.pl3     1 <1>        -0.3361
      8 H1          4.0673    3.2928    0.0020 H         1 <1>         0.3453
      9 C7          2.8322    4.3719    1.3336 C.2       1 <1>         0.0087
     10 N2          2.0644    5.4102    1.1749 N.2       1 <1>        -0.3708
     11 C8          3.0305    3.6355    2.6334 C.3       1 <1>         0.0996
     12 S1          4.4214    4.3690    3.5378 S.3       1 <1>        -0.0494
     13 C9          4.5234    3.4109    5.0130 C.2       1 <1>         0.0523
     14 N3          3.7225    2.4040    5.3186 N.2       1 <1>        -0.3888
     15 C10         4.1026    1.9144    6.5155 C.2       1 <1>         0.0100
     16 C11         3.6535    0.8812    7.3332 C.2       1 <1>        -0.0342
     17 C12         4.3006    0.6547    8.5448 C.2       1 <1>        -0.0417
     18 C13         5.3524    1.4314    8.9190 C.2       1 <1>        -0.0218
     19 N4          5.7988    2.4337    8.1405 N.pl3     1 <1>        -0.3043
     20 H2          6.5512    2.9710    8.4337 H         1 <1>         0.3719
     21 C14         5.2031    2.7023    6.9413 C.2       1 <1>         0.0231
     22 N5          5.4155    3.5995    5.9854 N.2       1 <1>        -0.3618
     23 H3          2.8344    6.3224   -3.8672 H         1 <1>         0.1275
     24 H4          1.2916    7.8351   -2.6939 H         1 <1>         0.1225
     25 H5          0.8306    7.5374   -0.3149 H         1 <1>         0.1434
     26 H6          3.9195    4.4751   -2.6637 H         1 <1>         0.1260
     27 H7          2.1251    3.7111    3.2356 H         1 <1>         0.1525
     28 H8          3.2435    2.5864    2.4278 H         1 <1>         0.1412
     29 H9          2.8181    0.2661    7.0329 H         1 <1>         0.1817
     30 H10         3.9651   -0.1424    9.1917 H         1 <1>         0.1457
     31 H11         5.8407    1.2391    9.8629 H         1 <1>         0.2331
@<TRIPOS>BOND
     1    1    6 ar
     2    1    2 ar
     3    1   23 1
     4    2    3 ar
     5    2   24 1
     6    3    4 ar
     7    3   25 1
     8    4   10 1
     9    4    5 ar
    10    5    6 ar
    11    5    7 1
    12    6   26 1
    13    7    8 1
    14    7    9 1
    15    9   10 2
    16    9   11 1
    17   11   12 1
    18   11   27 1
    19   11   28 1
    20   12   13 1
    21   13   22 1
    22   13   14 2
    23   14   15 1
    24   15   21 1
    25   15   16 2
    26   16   17 1
    27   16   29 1
    28   17   18 2
    29   17   30 1
    30   18   19 1
    31   18   31 1
    32   19   20 1
    33   19   21 1
    34   21   22 2
@<TRIPOS>Similarity
0.7779
@<TRIPOS>ShapeSim
0.4487
@<TRIPOS>PharmSim
0.3292
# END
# Name:		ZINC02503793
# Created and modified by SHAFTS on Mon Jun 23 14:53:19 2014

# 

@<TRIPOS>MOLECULE
ZINC02503793
   31    34     0
SMALL
USER_CHARGE


@<TRIPOS>ATOM
      1 C1          2.6365    6.1760   -2.8156 C.ar      1 <1>        -0.0937
      2 C2          1.7657    7.0296   -2.1530 C.ar      1 <1>        -0.0894
      3 C3          1.5066    6.8647   -0.8219 C.ar      1 <1>        -0.0597
      4 C4          2.1175    5.8240   -0.1174 C.ar      1 <1>        -0.0193
      5 C5          2.9945    4.9558   -0.7892 C.ar      1 <1>        -0.0402
      6 C6          3.2459    5.1391   -2.1423 C.ar      1 <1>        -0.0730
      7 N1          3.4302    4.0481    0.1554 N.pl3     1 <1>        -0.3361
      8 H1          4.0673    3.2928    0.0020 H         1 <1>         0.3453
      9 C7          2.8322    4.3719    1.3336 C.2       1 <1>         0.0087
     10 N2          2.0644    5.4102    1.1749 N.2       1 <1>        -0.3708
     11 C8          3.0305    3.6355    2.6334 C.3       1 <1>         0.0996
     12 S1          4.4214    4.3690    3.5378 S.3       1 <1>        -0.0494
     13 C9          4.5234    3.4109    5.0130 C.2       1 <1>         0.0523
     14 N3          3.7225    2.4040    5.3186 N.2       1 <1>        -0.3888
     15 C10         4.1026    1.9144    6.5155 C.2       1 <1>         0.0100
     16 C11         3.6535    0.8812    7.3332 C.2       1 <1>        -0.0342
     17 C12         4.3006    0.6547    8.5448 C.2       1 <1>        -0.0417
     18 C13         5.3524    1.4314    8.9190 C.2       1 <1>        -0.0218
     19 N4          5.7988    2.4337    8.1405 N.pl3     1 <1>        -0.3043
     20 H2          6.5512    2.9710    8.4337 H         1 <1>         0.3719
     21 C14         5.2031    2.7023    6.9413 C.2       1 <1>         0.0231
     22 N5          5.4155    3.5995    5.9854 N.2       1 <1>        -0.3618
     23 H3          2.8344    6.3224   -3.8672 H         1 <1>         0.1275
     24 H4          1.2916    7.8351   -2.6939 H         1 <1>         0.1225
     25 H5          0.8306    7.5374   -0.3149 H         1 <1>         0.1434
     26 H6          3.9195    4.4751   -2.6637 H         1 <1>         0.1260
     27 H7          2.1251    3.7111    3.2356 H         1 <1>         0.1525
     28 H8          3.2435    2.5864    2.4278 H         1 <1>         0.1412
     29 H9          2.8181    0.2661    7.0329 H         1 <1>         0.1817
     30 H10         3.9651   -0.1424    9.1917 H         1 <1>         0.1457
     31 H11         5.8407    1.2391    9.8629 H         1 <1>         0.2331
@<TRIPOS>BOND
     1    1    6 ar
     2    1    2 ar
     3    1   23 1
     4    2    3 ar
     5    2   24 1
     6    3    4 ar
     7    3   25 1
     8    4   10 1
     9    4    5 ar
    10    5    6 ar
    11    5    7 1
    12    6   26 1
    13    7    8 1
    14    7    9 1
    15    9   10 2
    16    9   11 1
    17   11   12 1
    18   11   27 1
    19   11   28 1
    20   12   13 1
    21   13   22 1
    22   13   14 2
    23   14   15 1
    24   15   21 1
    25   15   16 2
    26   16   17 1
    27   16   29 1
    28   17   18 2
    29   17   30 1
    30   18   19 1
    31   18   31 1
    32   19   20 1
    33   19   21 1
    34   21   22 2
@<TRIPOS>Similarity
0.7779
@<TRIPOS>ShapeSim
0.4487
@<TRIPOS>PharmSim
0.3292
# END
# Name:		ZINC02503793
# Created and modified by SHAFTS on Mon Jun 23 14:53:19 2014

# 

@<TRIPOS>MOLECULE
ZINC02503793
   31    34     0
SMALL
USER_CHARGE


@<TRIPOS>ATOM
      1 C1          2.6365    6.1760   -2.8156 C.ar      1 <1>        -0.0937
      2 C2          1.7657    7.0296   -2.1530 C.ar      1 <1>        -0.0894
      3 C3          1.5066    6.8647   -0.8219 C.ar      1 <1>        -0.0597
      4 C4          2.1175    5.8240   -0.1174 C.ar      1 <1>        -0.0193
      5 C5          2.9945    4.9558   -0.7892 C.ar      1 <1>        -0.0402
      6 C6          3.2459    5.1391   -2.1423 C.ar      1 <1>        -0.0730
      7 N1          3.4302    4.0481    0.1554 N.pl3     1 <1>        -0.3361
      8 H1          4.0673    3.2928    0.0020 H         1 <1>         0.3453
      9 C7          2.8322    4.3719    1.3336 C.2       1 <1>         0.0087
     10 N2          2.0644    5.4102    1.1749 N.2       1 <1>        -0.3708
     11 C8          3.0305    3.6355    2.6334 C.3       1 <1>         0.0996
     12 S1          4.4214    4.3690    3.5378 S.3       1 <1>        -0.0494
     13 C9          4.5234    3.4109    5.0130 C.2       1 <1>         0.0523
     14 N3          3.7225    2.4040    5.3186 N.2       1 <1>        -0.3888
     15 C10         4.1026    1.9144    6.5155 C.2       1 <1>         0.0100
     16 C11         3.6535    0.8812    7.3332 C.2       1 <1>        -0.0342
     17 C12         4.3006    0.6547    8.5448 C.2       1 <1>        -0.0417
     18 C13         5.3524    1.4314    8.9190 C.2       1 <1>        -0.0218
     19 N4          5.7988    2.4337    8.1405 N.pl3     1 <1>        -0.3043
     20 H2          6.5512    2.9710    8.4337 H         1 <1>         0.3719
     21 C14         5.2031    2.7023    6.9413 C.2       1 <1>         0.0231
     22 N5          5.4155    3.5995    5.9854 N.2       1 <1>        -0.3618
     23 H3          2.8344    6.3224   -3.8672 H         1 <1>         0.1275
     24 H4          1.2916    7.8351   -2.6939 H         1 <1>         0.1225
     25 H5          0.8306    7.5374   -0.3149 H         1 <1>         0.1434
     26 H6          3.9195    4.4751   -2.6637 H         1 <1>         0.1260
     27 H7          2.1251    3.7111    3.2356 H         1 <1>         0.1525
     28 H8          3.2435    2.5864    2.4278 H         1 <1>         0.1412
     29 H9          2.8181    0.2661    7.0329 H         1 <1>         0.1817
     30 H10         3.9651   -0.1424    9.1917 H         1 <1>         0.1457
     31 H11         5.8407    1.2391    9.8629 H         1 <1>         0.2331
@<TRIPOS>BOND
     1    1    6 ar
     2    1    2 ar
     3    1   23 1
     4    2    3 ar
     5    2   24 1
     6    3    4 ar
     7    3   25 1
     8    4   10 1
     9    4    5 ar
    10    5    6 ar
    11    5    7 1
    12    6   26 1
    13    7    8 1
    14    7    9 1
    15    9   10 2
    16    9   11 1
    17   11   12 1
    18   11   27 1
    19   11   28 1
    20   12   13 1
    21   13   22 1
    22   13   14 2
    23   14   15 1
    24   15   21 1
    25   15   16 2
    26   16   17 1
    27   16   29 1
    28   17   18 2
    29   17   30 1
    30   18   19 1
    31   18   31 1
    32   19   20 1
    33   19   21 1
    34   21   22 2
@<TRIPOS>Similarity
0.7779
@<TRIPOS>ShapeSim
0.4487
@<TRIPOS>PharmSim
0.3292
# END
# Name:		ZINC02503793
# Created and modified by SHAFTS on Mon Jun 23 14:53:19 2014

# 

@<TRIPOS>MOLECULE
ZINC02503793
   31    34     0
SMALL
USER_CHARGE


@<TRIPOS>ATOM
      1 C1          2.6365    6.1760   -2.8156 C.ar      1 <1>        -0.0937
      2 C2          1.7657    7.0296   -2.1530 C.ar      1 <1>        -0.0894
      3 C3          1.5066    6.8647   -0.8219 C.ar      1 <1>        -0.0597
      4 C4          2.1175    5.8240   -0.1174 C.ar      1 <1>        -0.0193
      5 C5          2.9945    4.9558   -0.7892 C.ar      1 <1>        -0.0402
      6 C6          3.2459    5.1391   -2.1423 C.ar      1 <1>        -0.0730
      7 N1          3.4302    4.0481    0.1554 N.pl3     1 <1>        -0.3361
      8 H1          4.0673    3.2928    0.0020 H         1 <1>         0.3453
      9 C7          2.8322    4.3719    1.3336 C.2       1 <1>         0.0087
     10 N2          2.0644    5.4102    1.1749 N.2       1 <1>        -0.3708
     11 C8          3.0305    3.6355    2.6334 C.3       1 <1>         0.0996
     12 S1          4.4214    4.3690    3.5378 S.3       1 <1>        -0.0494
     13 C9          4.5234    3.4109    5.0130 C.2       1 <1>         0.0523
     14 N3          3.7225    2.4040    5.3186 N.2       1 <1>        -0.3888
     15 C10         4.1026    1.9144    6.5155 C.2       1 <1>         0.0100
     16 C11         3.6535    0.8812    7.3332 C.2       1 <1>        -0.0342
     17 C12         4.3006    0.6547    8.5448 C.2       1 <1>        -0.0417
     18 C13         5.3524    1.4314    8.9190 C.2       1 <1>        -0.0218
     19 N4          5.7988    2.4337    8.1405 N.pl3     1 <1>        -0.3043
     20 H2          6.5512    2.9710    8.4337 H         1 <1>         0.3719
     21 C14         5.2031    2.7023    6.9413 C.2       1 <1>         0.0231
     22 N5          5.4155    3.5995    5.9854 N.2       1 <1>        -0.3618
     23 H3          2.8344    6.3224   -3.8672 H         1 <1>         0.1275
     24 H4          1.2916    7.8351   -2.6939 H         1 <1>         0.1225
     25 H5          0.8306    7.5374   -0.3149 H         1 <1>         0.1434
     26 H6          3.9195    4.4751   -2.6637 H         1 <1>         0.1260
     27 H7          2.1251    3.7111    3.2356 H         1 <1>         0.1525
     28 H8          3.2435    2.5864    2.4278 H         1 <1>         0.1412
     29 H9          2.8181    0.2661    7.0329 H         1 <1>         0.1817
     30 H10         3.9651   -0.1424    9.1917 H         1 <1>         0.1457
     31 H11         5.8407    1.2391    9.8629 H         1 <1>         0.2331
@<TRIPOS>BOND
     1    1    6 ar
     2    1    2 ar
     3    1   23 1
     4    2    3 ar
     5    2   24 1
     6    3    4 ar
     7    3   25 1
     8    4   10 1
     9    4    5 ar
    10    5    6 ar
    11    5    7 1
    12    6   26 1
    13    7    8 1
    14    7    9 1
    15    9   10 2
    16    9   11 1
    17   11   12 1
    18   11   27 1
    19   11   28 1
    20   12   13 1
    21   13   22 1
    22   13   14 2
    23   14   15 1
    24   15   21 1
    25   15   16 2
    26   16   17 1
    27   16   29 1
    28   17   18 2
    29   17   30 1
    30   18   19 1
    31   18   31 1
    32   19   20 1
    33   19   21 1
    34   21   22 2
@<TRIPOS>Similarity
0.7779
@<TRIPOS>ShapeSim
0.4487
@<TRIPOS>PharmSim
0.3292
# END
# Name:		ZINC02503793
# Created and modified by SHAFTS on Mon Jun 23 14:53:19 2014

# 

@<TRIPOS>MOLECULE
ZINC02503793
   31    34     0
SMALL
USER_CHARGE


@<TRIPOS>ATOM
      1 C1          2.6365    6.1760   -2.8156 C.ar      1 <1>        -0.0937
      2 C2          1.7657    7.0296   -2.1530 C.ar      1 <1>        -0.0894
      3 C3          1.5066    6.8647   -0.8219 C.ar      1 <1>        -0.0597
      4 C4          2.1175    5.8240   -0.1174 C.ar      1 <1>        -0.0193
      5 C5          2.9945    4.9558   -0.7892 C.ar      1 <1>        -0.0402
      6 C6          3.2459    5.1391   -2.1423 C.ar      1 <1>        -0.0730
      7 N1          3.4302    4.0481    0.1554 N.pl3     1 <1>        -0.3361
      8 H1          4.0673    3.2928    0.0020 H         1 <1>         0.3453
      9 C7          2.8322    4.3719    1.3336 C.2       1 <1>         0.0087
     10 N2          2.0644    5.4102    1.1749 N.2       1 <1>        -0.3708
     11 C8          3.0305    3.6355    2.6334 C.3       1 <1>         0.0996
     12 S1          4.4214    4.3690    3.5378 S.3       1 <1>        -0.0494
     13 C9          4.5234    3.4109    5.0130 C.2       1 <1>         0.0523
     14 N3          3.7225    2.4040    5.3186 N.2       1 <1>        -0.3888
     15 C10         4.1026    1.9144    6.5155 C.2       1 <1>         0.0100
     16 C11         3.6535    0.8812    7.3332 C.2       1 <1>        -0.0342
     17 C12         4.3006    0.6547    8.5448 C.2       1 <1>        -0.0417
     18 C13         5.3524    1.4314    8.9190 C.2       1 <1>        -0.0218
     19 N4          5.7988    2.4337    8.1405 N.pl3     1 <1>        -0.3043
     20 H2          6.5512    2.9710    8.4337 H         1 <1>         0.3719
     21 C14         5.2031    2.7023    6.9413 C.2       1 <1>         0.0231
     22 N5          5.4155    3.5995    5.9854 N.2       1 <1>        -0.3618
     23 H3          2.8344    6.3224   -3.8672 H         1 <1>         0.1275
     24 H4          1.2916    7.8351   -2.6939 H         1 <1>         0.1225
     25 H5          0.8306    7.5374   -0.3149 H         1 <1>         0.1434
     26 H6          3.9195    4.4751   -2.6637 H         1 <1>         0.1260
     27 H7          2.1251    3.7111    3.2356 H         1 <1>         0.1525
     28 H8          3.2435    2.5864    2.4278 H         1 <1>         0.1412
     29 H9          2.8181    0.2661    7.0329 H         1 <1>         0.1817
     30 H10         3.9651   -0.1424    9.1917 H         1 <1>         0.1457
     31 H11         5.8407    1.2391    9.8629 H         1 <1>         0.2331
@<TRIPOS>BOND
     1    1    6 ar
     2    1    2 ar
     3    1   23 1
     4    2    3 ar
     5    2   24 1
     6    3    4 ar
     7    3   25 1
     8    4   10 1
     9    4    5 ar
    10    5    6 ar
    11    5    7 1
    12    6   26 1
    13    7    8 1
    14    7    9 1
    15    9   10 2
    16    9   11 1
    17   11   12 1
    18   11   27 1
    19   11   28 1
    20   12   13 1
    21   13   22 1
    22   13   14 2
    23   14   15 1
    24   15   21 1
    25   15   16 2
    26   16   17 1
    27   16   29 1
    28   17   18 2
    29   17   30 1
    30   18   19 1
    31   18   31 1
    32   19   20 1
    33   19   21 1
    34   21   22 2
@<TRIPOS>Similarity
0.7779
@<TRIPOS>ShapeSim
0.4487
@<TRIPOS>PharmSim
0.3292
# END
# Name:		ZINC02503793
# Created and modified by SHAFTS on Mon Jun 23 14:53:19 2014

# 

@<TRIPOS>MOLECULE
ZINC02503793
   31    34     0
SMALL
USER_CHARGE


@<TRIPOS>ATOM
      1 C1          2.6365    6.1760   -2.8156 C.ar      1 <1>        -0.0937
      2 C2          1.7657    7.0296   -2.1530 C.ar      1 <1>        -0.0894
      3 C3          1.5066    6.8647   -0.8219 C.ar      1 <1>        -0.0597
      4 C4          2.1175    5.8240   -0.1174 C.ar      1 <1>        -0.0193
      5 C5          2.9945    4.9558   -0.7892 C.ar      1 <1>        -0.0402
      6 C6          3.2459    5.1391   -2.1423 C.ar      1 <1>        -0.0730
      7 N1          3.4302    4.0481    0.1554 N.pl3     1 <1>        -0.3361
      8 H1          4.0673    3.2928    0.0020 H         1 <1>         0.3453
      9 C7          2.8322    4.3719    1.3336 C.2       1 <1>         0.0087
     10 N2          2.0644    5.4102    1.1749 N.2       1 <1>        -0.3708
     11 C8          3.0305    3.6355    2.6334 C.3       1 <1>         0.0996
     12 S1          4.4214    4.3690    3.5378 S.3       1 <1>        -0.0494
     13 C9          4.5234    3.4109    5.0130 C.2       1 <1>         0.0523
     14 N3          3.7225    2.4040    5.3186 N.2       1 <1>        -0.3888
     15 C10         4.1026    1.9144    6.5155 C.2       1 <1>         0.0100
     16 C11         3.6535    0.8812    7.3332 C.2       1 <1>        -0.0342
     17 C12         4.3006    0.6547    8.5448 C.2       1 <1>        -0.0417
     18 C13         5.3524    1.4314    8.9190 C.2       1 <1>        -0.0218
     19 N4          5.7988    2.4337    8.1405 N.pl3     1 <1>        -0.3043
     20 H2          6.5512    2.9710    8.4337 H         1 <1>         0.3719
     21 C14         5.2031    2.7023    6.9413 C.2       1 <1>         0.0231
     22 N5          5.4155    3.5995    5.9854 N.2       1 <1>        -0.3618
     23 H3          2.8344    6.3224   -3.8672 H         1 <1>         0.1275
     24 H4          1.2916    7.8351   -2.6939 H         1 <1>         0.1225
     25 H5          0.8306    7.5374   -0.3149 H         1 <1>         0.1434
     26 H6          3.9195    4.4751   -2.6637 H         1 <1>         0.1260
     27 H7          2.1251    3.7111    3.2356 H         1 <1>         0.1525
     28 H8          3.2435    2.5864    2.4278 H         1 <1>         0.1412
     29 H9          2.8181    0.2661    7.0329 H         1 <1>         0.1817
     30 H10         3.9651   -0.1424    9.1917 H         1 <1>         0.1457
     31 H11         5.8407    1.2391    9.8629 H         1 <1>         0.2331
@<TRIPOS>BOND
     1    1    6 ar
     2    1    2 ar
     3    1   23 1
     4    2    3 ar
     5    2   24 1
     6    3    4 ar
     7    3   25 1
     8    4   10 1
     9    4    5 ar
    10    5    6 ar
    11    5    7 1
    12    6   26 1
    13    7    8 1
    14    7    9 1
    15    9   10 2
    16    9   11 1
    17   11   12 1
    18   11   27 1
    19   11   28 1
    20   12   13 1
    21   13   22 1
    22   13   14 2
    23   14   15 1
    24   15   21 1
    25   15   16 2
    26   16   17 1
    27   16   29 1
    28   17   18 2
    29   17   30 1
    30   18   19 1
    31   18   31 1
    32   19   20 1
    33   19   21 1
    34   21   22 2
@<TRIPOS>Similarity
0.7779
@<TRIPOS>ShapeSim
0.4487
@<TRIPOS>PharmSim
0.3292
# END
# Name:		ZINC02503793
# Created and modified by SHAFTS on Mon Jun 23 14:53:19 2014

# 

@<TRIPOS>MOLECULE
ZINC02503793
   31    34     0
SMALL
USER_CHARGE


@<TRIPOS>ATOM
      1 C1          2.6365    6.1760   -2.8156 C.ar      1 <1>        -0.0937
      2 C2          1.7657    7.0296   -2.1530 C.ar      1 <1>        -0.0894
      3 C3          1.5066    6.8647   -0.8219 C.ar      1 <1>        -0.0597
      4 C4          2.1175    5.8240   -0.1174 C.ar      1 <1>        -0.0193
      5 C5          2.9945    4.9558   -0.7892 C.ar      1 <1>        -0.0402
      6 C6          3.2459    5.1391   -2.1423 C.ar      1 <1>        -0.0730
      7 N1          3.4302    4.0481    0.1554 N.pl3     1 <1>        -0.3361
      8 H1          4.0673    3.2928    0.0020 H         1 <1>         0.3453
      9 C7          2.8322    4.3719    1.3336 C.2       1 <1>         0.0087
     10 N2          2.0644    5.4102    1.1749 N.2       1 <1>        -0.3708
     11 C8          3.0305    3.6355    2.6334 C.3       1 <1>         0.0996
     12 S1          4.4214    4.3690    3.5378 S.3       1 <1>        -0.0494
     13 C9          4.5234    3.4109    5.0130 C.2       1 <1>         0.0523
     14 N3          3.7225    2.4040    5.3186 N.2       1 <1>        -0.3888
     15 C10         4.1026    1.9144    6.5155 C.2       1 <1>         0.0100
     16 C11         3.6535    0.8812    7.3332 C.2       1 <1>        -0.0342
     17 C12         4.3006    0.6547    8.5448 C.2       1 <1>        -0.0417
     18 C13         5.3524    1.4314    8.9190 C.2       1 <1>        -0.0218
     19 N4          5.7988    2.4337    8.1405 N.pl3     1 <1>        -0.3043
     20 H2          6.5512    2.9710    8.4337 H         1 <1>         0.3719
     21 C14         5.2031    2.7023    6.9413 C.2       1 <1>         0.0231
     22 N5          5.4155    3.5995    5.9854 N.2       1 <1>        -0.3618
     23 H3          2.8344    6.3224   -3.8672 H         1 <1>         0.1275
     24 H4          1.2916    7.8351   -2.6939 H         1 <1>         0.1225
     25 H5          0.8306    7.5374   -0.3149 H         1 <1>         0.1434
     26 H6          3.9195    4.4751   -2.6637 H         1 <1>         0.1260
     27 H7          2.1251    3.7111    3.2356 H         1 <1>         0.1525
     28 H8          3.2435    2.5864    2.4278 H         1 <1>         0.1412
     29 H9          2.8181    0.2661    7.0329 H         1 <1>         0.1817
     30 H10         3.9651   -0.1424    9.1917 H         1 <1>         0.1457
     31 H11         5.8407    1.2391    9.8629 H         1 <1>         0.2331
@<TRIPOS>BOND
     1    1    6 ar
     2    1    2 ar
     3    1   23 1
     4    2    3 ar
     5    2   24 1
     6    3    4 ar
     7    3   25 1
     8    4   10 1
     9    4    5 ar
    10    5    6 ar
    11    5    7 1
    12    6   26 1
    13    7    8 1
    14    7    9 1
    15    9   10 2
    16    9   11 1
    17   11   12 1
    18   11   27 1
    19   11   28 1
    20   12   13 1
    21   13   22 1
    22   13   14 2
    23   14   15 1
    24   15   21 1
    25   15   16 2
    26   16   17 1
    27   16   29 1
    28   17   18 2
    29   17   30 1
    30   18   19 1
    31   18   31 1
    32   19   20 1
    33   19   21 1
    34   21   22 2
@<TRIPOS>Similarity
0.7779
@<TRIPOS>ShapeSim
0.4487
@<TRIPOS>PharmSim
0.3292
# END
# Name:		ZINC02503793
# Created and modified by SHAFTS on Mon Jun 23 14:53:19 2014

# 

@<TRIPOS>MOLECULE
ZINC02503793
   31    34     0
SMALL
USER_CHARGE


@<TRIPOS>ATOM
      1 C1          2.6365    6.1760   -2.8156 C.ar      1 <1>        -0.0937
      2 C2          1.7657    7.0296   -2.1530 C.ar      1 <1>        -0.0894
      3 C3          1.5066    6.8647   -0.8219 C.ar      1 <1>        -0.0597
      4 C4          2.1175    5.8240   -0.1174 C.ar      1 <1>        -0.0193
      5 C5          2.9945    4.9558   -0.7892 C.ar      1 <1>        -0.0402
      6 C6          3.2459    5.1391   -2.1423 C.ar      1 <1>        -0.0730
      7 N1          3.4302    4.0481    0.1554 N.pl3     1 <1>        -0.3361
      8 H1          4.0673    3.2928    0.0020 H         1 <1>         0.3453
      9 C7          2.8322    4.3719    1.3336 C.2       1 <1>         0.0087
     10 N2          2.0644    5.4102    1.1749 N.2       1 <1>        -0.3708
     11 C8          3.0305    3.6355    2.6334 C.3       1 <1>         0.0996
     12 S1          4.4214    4.3690    3.5378 S.3       1 <1>        -0.0494
     13 C9          4.5234    3.4109    5.0130 C.2       1 <1>         0.0523
     14 N3          3.7225    2.4040    5.3186 N.2       1 <1>        -0.3888
     15 C10         4.1026    1.9144    6.5155 C.2       1 <1>         0.0100
     16 C11         3.6535    0.8812    7.3332 C.2       1 <1>        -0.0342
     17 C12         4.3006    0.6547    8.5448 C.2       1 <1>        -0.0417
     18 C13         5.3524    1.4314    8.9190 C.2       1 <1>        -0.0218
     19 N4          5.7988    2.4337    8.1405 N.pl3     1 <1>        -0.3043
     20 H2          6.5512    2.9710    8.4337 H         1 <1>         0.3719
     21 C14         5.2031    2.7023    6.9413 C.2       1 <1>         0.0231
     22 N5          5.4155    3.5995    5.9854 N.2       1 <1>        -0.3618
     23 H3          2.8344    6.3224   -3.8672 H         1 <1>         0.1275
     24 H4          1.2916    7.8351   -2.6939 H         1 <1>         0.1225
     25 H5          0.8306    7.5374   -0.3149 H         1 <1>         0.1434
     26 H6          3.9195    4.4751   -2.6637 H         1 <1>         0.1260
     27 H7          2.1251    3.7111    3.2356 H         1 <1>         0.1525
     28 H8          3.2435    2.5864    2.4278 H         1 <1>         0.1412
     29 H9          2.8181    0.2661    7.0329 H         1 <1>         0.1817
     30 H10         3.9651   -0.1424    9.1917 H         1 <1>         0.1457
     31 H11         5.8407    1.2391    9.8629 H         1 <1>         0.2331
@<TRIPOS>BOND
     1    1    6 ar
     2    1    2 ar
     3    1   23 1
     4    2    3 ar
     5    2   24 1
     6    3    4 ar
     7    3   25 1
     8    4   10 1
     9    4    5 ar
    10    5    6 ar
    11    5    7 1
    12    6   26 1
    13    7    8 1
    14    7    9 1
    15    9   10 2
    16    9   11 1
    17   11   12 1
    18   11   27 1
    19   11   28 1
    20   12   13 1
    21   13   22 1
    22   13   14 2
    23   14   15 1
    24   15   21 1
    25   15   16 2
    26   16   17 1
    27   16   29 1
    28   17   18 2
    29   17   30 1
    30   18   19 1
    31   18   31 1
    32   19   20 1
    33   19   21 1
    34   21   22 2
@<TRIPOS>Similarity
0.7779
@<TRIPOS>ShapeSim
0.4487
@<TRIPOS>PharmSim
0.3292
# END
# Name:		ZINC02503793
# Created and modified by SHAFTS on Mon Jun 23 14:53:19 2014

# 

@<TRIPOS>MOLECULE
ZINC02503793
   31    34     0
SMALL
USER_CHARGE


@<TRIPOS>ATOM
      1 C1          2.6365    6.1760   -2.8156 C.ar      1 <1>        -0.0937
      2 C2          1.7657    7.0296   -2.1530 C.ar      1 <1>        -0.0894
      3 C3          1.5066    6.8647   -0.8219 C.ar      1 <1>        -0.0597
      4 C4          2.1175    5.8240   -0.1174 C.ar      1 <1>        -0.0193
      5 C5          2.9945    4.9558   -0.7892 C.ar      1 <1>        -0.0402
      6 C6          3.2459    5.1391   -2.1423 C.ar      1 <1>        -0.0730
      7 N1          3.4302    4.0481    0.1554 N.pl3     1 <1>        -0.3361
      8 H1          4.0673    3.2928    0.0020 H         1 <1>         0.3453
      9 C7          2.8322    4.3719    1.3336 C.2       1 <1>         0.0087
     10 N2          2.0644    5.4102    1.1749 N.2       1 <1>        -0.3708
     11 C8          3.0305    3.6355    2.6334 C.3       1 <1>         0.0996
     12 S1          4.4214    4.3690    3.5378 S.3       1 <1>        -0.0494
     13 C9          4.5234    3.4109    5.0130 C.2       1 <1>         0.0523
     14 N3          3.7225    2.4040    5.3186 N.2       1 <1>        -0.3888
     15 C10         4.1026    1.9144    6.5155 C.2       1 <1>         0.0100
     16 C11         3.6535    0.8812    7.3332 C.2       1 <1>        -0.0342
     17 C12         4.3006    0.6547    8.5448 C.2       1 <1>        -0.0417
     18 C13         5.3524    1.4314    8.9190 C.2       1 <1>        -0.0218
     19 N4          5.7988    2.4337    8.1405 N.pl3     1 <1>        -0.3043
     20 H2          6.5512    2.9710    8.4337 H         1 <1>         0.3719
     21 C14         5.2031    2.7023    6.9413 C.2       1 <1>         0.0231
     22 N5          5.4155    3.5995    5.9854 N.2       1 <1>        -0.3618
     23 H3          2.8344    6.3224   -3.8672 H         1 <1>         0.1275
     24 H4          1.2916    7.8351   -2.6939 H         1 <1>         0.1225
     25 H5          0.8306    7.5374   -0.3149 H         1 <1>         0.1434
     26 H6          3.9195    4.4751   -2.6637 H         1 <1>         0.1260
     27 H7          2.1251    3.7111    3.2356 H         1 <1>         0.1525
     28 H8          3.2435    2.5864    2.4278 H         1 <1>         0.1412
     29 H9          2.8181    0.2661    7.0329 H         1 <1>         0.1817
     30 H10         3.9651   -0.1424    9.1917 H         1 <1>         0.1457
     31 H11         5.8407    1.2391    9.8629 H         1 <1>         0.2331
@<TRIPOS>BOND
     1    1    6 ar
     2    1    2 ar
     3    1   23 1
     4    2    3 ar
     5    2   24 1
     6    3    4 ar
     7    3   25 1
     8    4   10 1
     9    4    5 ar
    10    5    6 ar
    11    5    7 1
    12    6   26 1
    13    7    8 1
    14    7    9 1
    15    9   10 2
    16    9   11 1
    17   11   12 1
    18   11   27 1
    19   11   28 1
    20   12   13 1
    21   13   22 1
    22   13   14 2
    23   14   15 1
    24   15   21 1
    25   15   16 2
    26   16   17 1
    27   16   29 1
    28   17   18 2
    29   17   30 1
    30   18   19 1
    31   18   31 1
    32   19   20 1
    33   19   21 1
    34   21   22 2
@<TRIPOS>Similarity
0.7779
@<TRIPOS>ShapeSim
0.4487
@<TRIPOS>PharmSim
0.3292
# END
# Name:		ZINC02503793
# Created and modified by SHAFTS on Mon Jun 23 14:53:19 2014

# 

@<TRIPOS>MOLECULE
ZINC02503793
   31    34     0
SMALL
USER_CHARGE


@<TRIPOS>ATOM
      1 C1          2.6365    6.1760   -2.8156 C.ar      1 <1>        -0.0937
      2 C2          1.7657    7.0296   -2.1530 C.ar      1 <1>        -0.0894
      3 C3          1.5066    6.8647   -0.8219 C.ar      1 <1>        -0.0597
      4 C4          2.1175    5.8240   -0.1174 C.ar      1 <1>        -0.0193
      5 C5          2.9945    4.9558   -0.7892 C.ar      1 <1>        -0.0402
      6 C6          3.2459    5.1391   -2.1423 C.ar      1 <1>        -0.0730
      7 N1          3.4302    4.0481    0.1554 N.pl3     1 <1>        -0.3361
      8 H1          4.0673    3.2928    0.0020 H         1 <1>         0.3453
      9 C7          2.8322    4.3719    1.3336 C.2       1 <1>         0.0087
     10 N2          2.0644    5.4102    1.1749 N.2       1 <1>        -0.3708
     11 C8          3.0305    3.6355    2.6334 C.3       1 <1>         0.0996
     12 S1          4.4214    4.3690    3.5378 S.3       1 <1>        -0.0494
     13 C9          4.5234    3.4109    5.0130 C.2       1 <1>         0.0523
     14 N3          3.7225    2.4040    5.3186 N.2       1 <1>        -0.3888
     15 C10         4.1026    1.9144    6.5155 C.2       1 <1>         0.0100
     16 C11         3.6535    0.8812    7.3332 C.2       1 <1>        -0.0342
     17 C12         4.3006    0.6547    8.5448 C.2       1 <1>        -0.0417
     18 C13         5.3524    1.4314    8.9190 C.2       1 <1>        -0.0218
     19 N4          5.7988    2.4337    8.1405 N.pl3     1 <1>        -0.3043
     20 H2          6.5512    2.9710    8.4337 H         1 <1>         0.3719
     21 C14         5.2031    2.7023    6.9413 C.2       1 <1>         0.0231
     22 N5          5.4155    3.5995    5.9854 N.2       1 <1>        -0.3618
     23 H3          2.8344    6.3224   -3.8672 H         1 <1>         0.1275
     24 H4          1.2916    7.8351   -2.6939 H         1 <1>         0.1225
     25 H5          0.8306    7.5374   -0.3149 H         1 <1>         0.1434
     26 H6          3.9195    4.4751   -2.6637 H         1 <1>         0.1260
     27 H7          2.1251    3.7111    3.2356 H         1 <1>         0.1525
     28 H8          3.2435    2.5864    2.4278 H         1 <1>         0.1412
     29 H9          2.8181    0.2661    7.0329 H         1 <1>         0.1817
     30 H10         3.9651   -0.1424    9.1917 H         1 <1>         0.1457
     31 H11         5.8407    1.2391    9.8629 H         1 <1>         0.2331
@<TRIPOS>BOND
     1    1    6 ar
     2    1    2 ar
     3    1   23 1
     4    2    3 ar
     5    2   24 1
     6    3    4 ar
     7    3   25 1
     8    4   10 1
     9    4    5 ar
    10    5    6 ar
    11    5    7 1
    12    6   26 1
    13    7    8 1
    14    7    9 1
    15    9   10 2
    16    9   11 1
    17   11   12 1
    18   11   27 1
    19   11   28 1
    20   12   13 1
    21   13   22 1
    22   13   14 2
    23   14   15 1
    24   15   21 1
    25   15   16 2
    26   16   17 1
    27   16   29 1
    28   17   18 2
    29   17   30 1
    30   18   19 1
    31   18   31 1
    32   19   20 1
    33   19   21 1
    34   21   22 2
@<TRIPOS>Similarity
0.7779
@<TRIPOS>ShapeSim
0.4487
@<TRIPOS>PharmSim
0.3292
# END
# Name:		ZINC02503793
# Created and modified by SHAFTS on Mon Jun 23 14:53:19 2014

# 

@<TRIPOS>MOLECULE
ZINC02503793
   31    34     0
SMALL
USER_CHARGE


@<TRIPOS>ATOM
      1 C1          2.6365    6.1760   -2.8156 C.ar      1 <1>        -0.0937
      2 C2          1.7657    7.0296   -2.1530 C.ar      1 <1>        -0.0894
      3 C3          1.5066    6.8647   -0.8219 C.ar      1 <1>        -0.0597
      4 C4          2.1175    5.8240   -0.1174 C.ar      1 <1>        -0.0193
      5 C5          2.9945    4.9558   -0.7892 C.ar      1 <1>        -0.0402
      6 C6          3.2459    5.1391   -2.1423 C.ar      1 <1>        -0.0730
      7 N1          3.4302    4.0481    0.1554 N.pl3     1 <1>        -0.3361
      8 H1          4.0673    3.2928    0.0020 H         1 <1>         0.3453
      9 C7          2.8322    4.3719    1.3336 C.2       1 <1>         0.0087
     10 N2          2.0644    5.4102    1.1749 N.2       1 <1>        -0.3708
     11 C8          3.0305    3.6355    2.6334 C.3       1 <1>         0.0996
     12 S1          4.4214    4.3690    3.5378 S.3       1 <1>        -0.0494
     13 C9          4.5234    3.4109    5.0130 C.2       1 <1>         0.0523
     14 N3          3.7225    2.4040    5.3186 N.2       1 <1>        -0.3888
     15 C10         4.1026    1.9144    6.5155 C.2       1 <1>         0.0100
     16 C11         3.6535    0.8812    7.3332 C.2       1 <1>        -0.0342
     17 C12         4.3006    0.6547    8.5448 C.2       1 <1>        -0.0417
     18 C13         5.3524    1.4314    8.9190 C.2       1 <1>        -0.0218
     19 N4          5.7988    2.4337    8.1405 N.pl3     1 <1>        -0.3043
     20 H2          6.5512    2.9710    8.4337 H         1 <1>         0.3719
     21 C14         5.2031    2.7023    6.9413 C.2       1 <1>         0.0231
     22 N5          5.4155    3.5995    5.9854 N.2       1 <1>        -0.3618
     23 H3          2.8344    6.3224   -3.8672 H         1 <1>         0.1275
     24 H4          1.2916    7.8351   -2.6939 H         1 <1>         0.1225
     25 H5          0.8306    7.5374   -0.3149 H         1 <1>         0.1434
     26 H6          3.9195    4.4751   -2.6637 H         1 <1>         0.1260
     27 H7          2.1251    3.7111    3.2356 H         1 <1>         0.1525
     28 H8          3.2435    2.5864    2.4278 H         1 <1>         0.1412
     29 H9          2.8181    0.2661    7.0329 H         1 <1>         0.1817
     30 H10         3.9651   -0.1424    9.1917 H         1 <1>         0.1457
     31 H11         5.8407    1.2391    9.8629 H         1 <1>         0.2331
@<TRIPOS>BOND
     1    1    6 ar
     2    1    2 ar
     3    1   23 1
     4    2    3 ar
     5    2   24 1
     6    3    4 ar
     7    3   25 1
     8    4   10 1
     9    4    5 ar
    10    5    6 ar
    11    5    7 1
    12    6   26 1
    13    7    8 1
    14    7    9 1
    15    9   10 2
    16    9   11 1
    17   11   12 1
    18   11   27 1
    19   11   28 1
    20   12   13 1
    21   13   22 1
    22   13   14 2
    23   14   15 1
    24   15   21 1
    25   15   16 2
    26   16   17 1
    27   16   29 1
    28   17   18 2
    29   17   30 1
    30   18   19 1
    31   18   31 1
    32   19   20 1
    33   19   21 1
    34   21   22 2
@<TRIPOS>Similarity
0.7779
@<TRIPOS>ShapeSim
0.4487
@<TRIPOS>PharmSim
0.3292
# END
