@<TRIPOS>MOLECULE
AI-031/12583052
 36 39 0 0 0
SMALL
USER_CHARGES

@<TRIPOS>ATOM
      1 C          -1.4115    2.5188    0.7572 C.ar    1  LIG1       -0.1020
      2 C          -0.7665    1.2825    0.7225 C.ar    1  LIG1       -0.0993
      3 C          -0.8067    3.6371    0.1834 C.ar    1  LIG1       -0.0944
      4 C           0.4832    1.1645    0.1142 C.ar    1  LIG1       -0.0790
      5 C           0.4430    3.5193   -0.4249 C.ar    1  LIG1       -0.0715
      6 C           4.5063   -1.4075    2.3039 C.ar    1  LIG1       -0.0375
      7 C           5.8823   -2.2708    0.5155 C.ar    1  LIG1       -0.0437
      8 C           4.9310   -2.4464    3.1322 C.ar    1  LIG1       -0.0538
      9 C           6.3071   -3.3096    1.3437 C.ar    1  LIG1       -0.0573
     10 C           3.3418    0.3357    0.2400 C.ar    1  LIG1        0.0126
     11 C           3.3798    1.2716   -0.7525 C.ar    1  LIG1        0.0268
     12 C           1.0880    2.2829   -0.4595 C.ar    1  LIG1       -0.0237
     13 C           4.6669    1.1632   -1.3938 C.ar    1  LIG1        0.0499
     14 C           4.9819   -1.3198    0.9956 C.ar    1  LIG1        0.0063
     15 C           5.8314   -3.3974    2.6520 C.ar    1  LIG1       -0.0047
     16 C           2.3690    2.1615   -1.0832 C.ar    1  LIG1        0.0389
     17 C           4.9932    2.0103   -2.4627 C.ar    1  LIG1        0.0417
     18 C           6.2686    2.0208   -3.2219 C.3     1  LIG1        0.0154
     19 N           5.3735    0.1882   -0.7967 N.ar    1  LIG1       -0.2967
     20 N           2.7146    2.9681   -2.1218 N.ar    1  LIG1       -0.2746
     21 N           4.0087    2.8909   -2.7995 N.ar    1  LIG1       -0.2732
     22 N           4.5573   -0.2816    0.1683 N.ar    1  LIG1       -0.2705
     23 CL          6.3571   -4.6776    3.6750 Cl      1  LIG1       -0.1328
     24 H          -2.3853    2.6100    1.2294 H       1  LIG1        0.1223
     25 H          -1.2380    0.4112    1.1677 H       1  LIG1        0.1203
     26 H          -1.3089    4.5998    0.2087 H       1  LIG1        0.1226
     27 H           0.9730    0.1937    0.0952 H       1  LIG1        0.1234
     28 H           0.9018    4.3996   -0.8685 H       1  LIG1        0.1387
     29 H           3.8043   -0.6730    2.6913 H       1  LIG1        0.1583
     30 H           6.2610   -2.2139   -0.5022 H       1  LIG1        0.1453
     31 H           4.5520   -2.5030    4.1494 H       1  LIG1        0.1497
     32 H           7.0086   -4.0439    0.9561 H       1  LIG1        0.1500
     33 H           2.5911    0.0565    0.9684 H       1  LIG1        0.2397
     34 H           6.2151    1.3385   -4.0821 H       1  LIG1        0.0856
     35 H           6.5085    3.0268   -3.5977 H       1  LIG1        0.0860
     36 H           7.1174    1.7126   -2.5929 H       1  LIG1        0.0810
@<TRIPOS>BOND
     1     1     2   ar
     2     1     3   ar
     3     2     4   ar
     4     3     5   ar
     5     4    12   ar
     6     5    12   ar
     7     6     8   ar
     8     6    14   ar
     9     7     9   ar
    10     7    14   ar
    11     8    15   ar
    12     9    15   ar
    13    10    11   ar
    14    10    22   ar
    15    11    13   ar
    16    11    16   ar
    17    12    16    1
    18    13    17   ar
    19    13    19   ar
    20    14    22    1
    21    15    23    1
    22    16    20   ar
    23    17    18    1
    24    17    21   ar
    25    19    22   ar
    26    20    21   ar
    27     1    24    1
    28     2    25    1
    29     3    26    1
    30     4    27    1
    31     5    28    1
    32     6    29    1
    33     7    30    1
    34     8    31    1
    35     9    32    1
    36    10    33    1
    37    18    34    1
    38    18    35    1
    39    18    36    1
