@<TRIPOS>MOLECULE
AI-211/36556008
 36 38 0 0 0
SMALL
USER_CHARGES

@<TRIPOS>ATOM
      1 C           3.0149    2.8918   -2.2181 C.1     1  LIG1        0.0810
      2 C           0.1847    1.0099   -0.2307 C.ar    1  LIG1       -0.0734
      3 C           1.1260    3.1909    0.2097 C.ar    1  LIG1       -0.0748
      4 C           5.0347   -1.1248    2.3904 C.ar    1  LIG1       -0.0660
      5 C           5.2677   -2.4819    0.4052 C.ar    1  LIG1       -0.0617
      6 C          -1.0950    1.5164   -0.0039 C.ar    1  LIG1       -0.0656
      7 C          -0.1537    3.6975    0.4364 C.ar    1  LIG1       -0.0658
      8 C           5.5557   -2.1637    3.1618 C.ar    1  LIG1       -0.0659
      9 C           5.7887   -3.5208    1.1765 C.ar    1  LIG1       -0.0636
     10 C           3.0781    0.2854    0.4491 C.ar    1  LIG1       -0.0193
     11 C           3.4426    1.8249   -1.3623 C.ar    1  LIG1        0.1496
     12 C           1.2953    1.8471   -0.1238 C.ar    1  LIG1       -0.0511
     13 C           4.8907   -1.2839    1.0121 C.ar    1  LIG1       -0.0228
     14 C           2.6228    1.3216   -0.3584 C.ar    1  LIG1       -0.0017
     15 C          -1.2642    2.8603    0.3295 C.ar    1  LIG1       -0.0108
     16 C           5.9326   -3.3616    2.5548 C.ar    1  LIG1       -0.0120
     17 C           4.3509   -0.2089    0.2139 C.ar    1  LIG1       -0.0003
     18 C           4.6993    1.2619   -1.5164 C.ar    1  LIG1        0.1201
     19 C           6.4205    2.7841   -2.1297 C.3     1  LIG1        0.0422
     20 N           2.6684    3.7559   -2.9110 N.1     1  LIG1       -0.3643
     21 N           5.1762    0.2544   -0.7515 N.ar    1  LIG1       -0.3380
     22 O           5.5463    1.7224   -2.4917 O.3     1  LIG1       -0.3618
     23 CL         -2.8434    3.4842    0.6106 Cl      1  LIG1       -0.1368
     24 CL          6.5740   -4.6436    3.5073 Cl      1  LIG1       -0.1376
     25 H           0.3004   -0.0399   -0.4897 H       1  LIG1        0.1428
     26 H           1.9820    3.8561    0.2977 H       1  LIG1        0.1362
     27 H           4.7452   -0.1971    2.8781 H       1  LIG1        0.1431
     28 H           5.1607   -2.6215   -0.6680 H       1  LIG1        0.1514
     29 H          -1.9517    0.8523   -0.0888 H       1  LIG1        0.1388
     30 H          -0.2706    4.7465    0.6966 H       1  LIG1        0.1383
     31 H           5.6608   -2.0270    4.2352 H       1  LIG1        0.1370
     32 H           6.0772   -4.4493    0.6904 H       1  LIG1        0.1360
     33 H           2.4568   -0.1255    1.2404 H       1  LIG1        0.1473
     34 H           7.0385    3.0571   -2.9885 H       1  LIG1        0.1009
     35 H           7.0540    2.4678   -1.2972 H       1  LIG1        0.1009
     36 H           5.8241    3.6470   -1.8239 H       1  LIG1        0.1276
@<TRIPOS>BOND
     1     1    11    1
     2     1    20    3
     3     2     6   ar
     4     2    12   ar
     5     3     7   ar
     6     3    12   ar
     7     4     8   ar
     8     4    13   ar
     9     5     9   ar
    10     5    13   ar
    11     6    15   ar
    12     7    15   ar
    13     8    16   ar
    14     9    16   ar
    15    10    14   ar
    16    10    17   ar
    17    11    14   ar
    18    11    18   ar
    19    12    14    1
    20    13    17    1
    21    15    23    1
    22    16    24    1
    23    17    21   ar
    24    18    21   ar
    25    18    22    1
    26    19    22    1
    27     2    25    1
    28     3    26    1
    29     4    27    1
    30     5    28    1
    31     6    29    1
    32     7    30    1
    33     8    31    1
    34     9    32    1
    35    10    33    1
    36    19    34    1
    37    19    35    1
    38    19    36    1
