@<TRIPOS>MOLECULE
AI-211/36556007
 36 38 0 0 0
SMALL
USER_CHARGES

@<TRIPOS>ATOM
      1 C           3.1747    2.9016   -2.3227 C.1     1  LIG1        0.0806
      2 C           6.1921   -3.3521    2.3931 C.ar    1  LIG1       -0.1025
      3 C           5.2708   -2.4737    2.9632 C.ar    1  LIG1       -0.0984
      4 C           6.5761   -3.1928    1.0616 C.ar    1  LIG1       -0.0961
      5 C           4.7334   -1.4358    2.2018 C.ar    1  LIG1       -0.0781
      6 C           6.0386   -2.1549    0.3002 C.ar    1  LIG1       -0.0738
      7 C           1.3032    3.1743    0.1244 C.ar    1  LIG1       -0.0671
      8 C           0.0218    3.6697    0.3657 C.ar    1  LIG1       -0.0543
      9 C           0.3749    0.9879   -0.3171 C.ar    1  LIG1       -0.0423
     10 C           3.2851    0.2825    0.3305 C.ar    1  LIG1       -0.0189
     11 C           3.6195    1.8341   -1.4764 C.ar    1  LIG1        0.1494
     12 C           5.1173   -1.2764    0.8703 C.ar    1  LIG1       -0.0295
     13 C           1.4798    1.8334   -0.2170 C.ar    1  LIG1       -0.0416
     14 C           2.8134    1.3188   -0.4674 C.ar    1  LIG1        0.0006
     15 C          -1.0830    2.8243    0.2656 C.ar    1  LIG1        0.0230
     16 C          -0.9065    1.4833   -0.0757 C.ar    1  LIG1        0.0259
     17 C           4.5599   -0.1997    0.0810 C.ar    1  LIG1       -0.0013
     18 C           4.8794    1.2826   -1.6450 C.ar    1  LIG1        0.1202
     19 C           6.5817    2.8225   -2.2666 C.3     1  LIG1        0.0422
     20 N           2.8146    3.7661   -3.0080 N.1     1  LIG1       -0.3643
     21 N           5.3720    0.2754   -0.8897 N.ar    1  LIG1       -0.3372
     22 O           5.7133    1.7553   -2.6259 O.3     1  LIG1       -0.3617
     23 CL         -2.6441    3.4970    0.5800 Cl      1  LIG1       -0.1170
     24 CL         -2.2359    0.3863   -0.2113 Cl      1  LIG1       -0.1182
     25 H           6.6117   -4.1592    2.9866 H       1  LIG1        0.1224
     26 H           4.9730   -2.5966    4.0004 H       1  LIG1        0.1206
     27 H           7.2944   -3.8756    0.6175 H       1  LIG1        0.1195
     28 H           4.0165   -0.7590    2.6607 H       1  LIG1        0.1310
     29 H           6.3479   -2.0428   -0.7363 H       1  LIG1        0.1395
     30 H           2.1545    3.8464    0.2041 H       1  LIG1        0.1436
     31 H          -0.0970    4.7178    0.6298 H       1  LIG1        0.1499
     32 H           0.5143   -0.0578   -0.5848 H       1  LIG1        0.1570
     33 H           2.6747   -0.1375    1.1255 H       1  LIG1        0.1473
     34 H           7.1894    3.1051   -3.1298 H       1  LIG1        0.1009
     35 H           7.2257    2.5075   -1.4417 H       1  LIG1        0.1009
     36 H           5.9810    3.6787   -1.9508 H       1  LIG1        0.1276
@<TRIPOS>BOND
     1     1    11    1
     2     1    20    3
     3     2     3   ar
     4     2     4   ar
     5     3     5   ar
     6     4     6   ar
     7     5    12   ar
     8     6    12   ar
     9     7     8   ar
    10     7    13   ar
    11     8    15   ar
    12     9    13   ar
    13     9    16   ar
    14    10    14   ar
    15    10    17   ar
    16    11    14   ar
    17    11    18   ar
    18    12    17    1
    19    13    14    1
    20    15    16   ar
    21    15    23    1
    22    16    24    1
    23    17    21   ar
    24    18    21   ar
    25    18    22    1
    26    19    22    1
    27     2    25    1
    28     3    26    1
    29     4    27    1
    30     5    28    1
    31     6    29    1
    32     7    30    1
    33     8    31    1
    34     9    32    1
    35    10    33    1
    36    19    34    1
    37    19    35    1
    38    19    36    1
