# Name:		AO-476/14976017
# Created and modified by SHAFTS on Thu Jun  3 03:39:13 2010

# 

@<TRIPOS>MOLECULE
AO-476/14976017
   28    30     0
SMALL
USER_CHARGE


@<TRIPOS>ATOM
      1 C1          6.2414   -3.3556    2.3666 C.ar      1 <1>        -0.0900
      2 C2          6.4714   -3.0911    1.0165 C.ar      1 <1>        -0.0823
      3 C3          5.3061   -2.6017    3.0756 C.ar      1 <1>        -0.0836
      4 C4          5.7661   -2.0728    0.3753 C.ar      1 <1>        -0.0497
      5 C5          4.6009   -1.5833    2.4344 C.ar      1 <1>        -0.0520
      6 C6          2.5340    1.0082    0.0208 C.2       1 <1>         0.0583
      7 C7          5.8479    1.2651   -2.1981 C.ar      1 <1>         0.1269
      8 C8          3.5435    1.3321   -0.9106 C.ar      1 <1>         0.1087
      9 C9          4.8308   -1.3188    1.0843 C.ar      1 <1>         0.0089
     10 C10         4.5700    0.4534   -0.6021 C.ar      1 <1>         0.1002
     11 C11         3.7144    2.2373   -1.9517 C.ar      1 <1>         0.0780
     12 N1          2.8830    0.0155    0.8456 N.2       1 <1>        -0.2693
     13 N2          5.7640    0.3590   -1.2070 N.ar      1 <1>        -0.2761
     14 N3          4.1262   -0.3012    0.4426 N.pl3     1 <1>        -0.2291
     15 N4          4.9040    2.1440   -2.5560 N.ar      1 <1>        -0.2814
     16 N5          2.7429    3.1704   -2.3417 N.pl3     1 <1>        -0.3275
     17 N6          5.2143    3.0497   -3.6776 N.pl3     1 <1>        -0.3425
     18 H1          6.7890   -4.1496    2.8659 H         1 <1>         0.1359
     19 H2          7.1986   -3.6788    0.4640 H         1 <1>         0.1376
     20 H3          5.1266   -2.8092    4.1266 H         1 <1>         0.1373
     21 H4          5.9544   -1.8775   -0.6776 H         1 <1>         0.1454
     22 H5          3.8742   -1.0038    2.9987 H         1 <1>         0.1402
     23 H6          1.5561    1.4545    0.1336 H         1 <1>         0.2685
     24 H7          6.7750    1.2792   -2.7613 H         1 <1>         0.3727
     25 H8          1.8480    3.1739   -1.8870 H         1 <1>         0.3218
     26 H9          2.9147    3.7632   -3.1335 H         1 <1>         0.3057
     27 H10         6.2124    3.2256   -3.6603 H         1 <1>         0.3123
     28 H11         4.7245    3.9212   -3.5097 H         1 <1>         0.3253
@<TRIPOS>BOND
     1    1    2 ar
     2    1    3 ar
     3    2    4 ar
     4    3    5 ar
     5    4    9 ar
     6    5    9 ar
     7    6    8 1
     8    6   12 2
     9    7   13 ar
    10    7   15 ar
    11    8   10 ar
    12    8   11 ar
    13    9   14 1
    14   10   13 ar
    15   10   14 1
    16   11   15 ar
    17   11   16 1
    18   12   14 1
    19   15   17 1
    20    1   18 1
    21    2   19 1
    22    3   20 1
    23    4   21 1
    24    5   22 1
    25    6   23 1
    26    7   24 1
    27   16   25 1
    28   16   26 1
    29   17   27 1
    30   17   28 1
@<TRIPOS>Similarity
1.6730
@<TRIPOS>ShapeSim
0.8218
@<TRIPOS>PharmSim
0.8512
# END
# Name:		AO-081/15246973
# Created and modified by SHAFTS on Thu Jun  3 03:39:13 2010

# 

@<TRIPOS>MOLECULE
AO-081/15246973
   43    46     0
SMALL
USER_CHARGE


@<TRIPOS>ATOM
      1 C1          6.0825   -3.3468    2.4509 C.ar      1 <1>        -0.1013
      2 C2          6.3628   -3.1118    1.1048 C.ar      1 <1>        -0.0912
      3 C3          5.1473   -2.5550    3.1172 C.ar      1 <1>        -0.0923
      4 C4          0.2170    1.2440   -0.7439 C.ar      1 <1>        -0.0728
      5 C5          1.1283    2.8537    0.8103 C.ar      1 <1>        -0.0738
      6 C6         -1.0245    1.8757   -0.6703 C.ar      1 <1>        -0.0951
      7 C7         -0.1132    3.4855    0.8839 C.ar      1 <1>        -0.0961
      8 C8          5.7077   -2.0849    0.4251 C.ar      1 <1>        -0.0517
      9 C9          4.4923   -1.5281    2.4374 C.ar      1 <1>        -0.0530
     10 C10         5.1208    2.1382   -2.6676 C.ar      1 <1>        -0.0578
     11 C11         3.6233    1.3577   -0.9815 C.ar      1 <1>         0.0228
     12 C12         1.2933    1.7330   -0.0036 C.ar      1 <1>        -0.0261
     13 C13        -1.1895    2.9964    0.1436 C.ar      1 <1>        -0.1145
     14 C14         3.8782    2.2367   -2.0414 C.ar      1 <1>        -0.0798
     15 C15         4.7725   -1.2930    1.0914 C.ar      1 <1>         0.0022
     16 C16         2.5760    1.0805   -0.0805 C.2       1 <1>         0.0395
     17 C17         6.0290    1.1872   -2.2148 C.ar      1 <1>        -0.0411
     18 C18         4.6172    0.4571   -0.6312 C.ar      1 <1>         0.0519
     19 C19        -2.5169    3.6718    0.2205 C.3       1 <1>        -0.0418
     20 C20         2.9005    3.2566   -2.5243 C.3       1 <1>        -0.0263
     21 C21         7.3567    1.0932   -2.8966 C.3       1 <1>         0.0009
     22 N1          2.8720    0.0920    0.7699 N.2       1 <1>        -0.2836
     23 N2          5.8292    0.3165   -1.1958 N.ar      1 <1>        -0.3612
     24 N3          4.1180   -0.2667    0.4111 N.pl3     1 <1>        -0.2501
     25 H1          6.5910   -4.1473    2.9801 H         1 <1>         0.1196
     26 H2          7.0899   -3.7290    0.5855 H         1 <1>         0.1274
     27 H3          4.9286   -2.7395    4.1651 H         1 <1>         0.1262
     28 H4          0.3290    0.3710   -1.3825 H         1 <1>         0.1324
     29 H5          1.9576    3.2471    1.3935 H         1 <1>         0.1328
     30 H6         -1.8576    1.4888   -1.2509 H         1 <1>         0.1217
     31 H7         -0.2336    4.3582    1.5202 H         1 <1>         0.1219
     32 H8          5.9347   -1.9129   -0.6242 H         1 <1>         0.1372
     33 H9          3.7650   -0.9188    2.9687 H         1 <1>         0.1347
     34 H10         5.3745    2.7952   -3.4949 H         1 <1>         0.1275
     35 H11        -3.1214    3.2358    1.0253 H         1 <1>         0.0585
     36 H12        -2.4065    4.7471    0.4120 H         1 <1>         0.0550
     37 H13        -3.0698    3.5725   -0.7228 H         1 <1>         0.0548
     38 H14         2.2638    2.8315   -3.3089 H         1 <1>         0.0699
     39 H15         2.2593    3.6097   -1.7071 H         1 <1>         0.0641
     40 H16         3.4139    4.1375   -2.9300 H         1 <1>         0.0677
     41 H17         8.0801    1.7548   -2.4077 H         1 <1>         0.0821
     42 H18         7.7431    0.0677   -2.8679 H         1 <1>         0.0790
     43 H19         7.2786    1.3773   -3.9526 H         1 <1>         0.0800
@<TRIPOS>BOND
     1    1    2 ar
     2    1    3 ar
     3    2    8 ar
     4    3    9 ar
     5    4    6 ar
     6    4   12 ar
     7    5    7 ar
     8    5   12 ar
     9    6   13 ar
    10    7   13 ar
    11    8   15 ar
    12    9   15 ar
    13   10   14 ar
    14   10   17 ar
    15   11   14 ar
    16   11   16 1
    17   11   18 ar
    18   12   16 1
    19   13   19 1
    20   14   20 1
    21   15   24 1
    22   16   22 2
    23   17   21 1
    24   17   23 ar
    25   18   23 ar
    26   18   24 1
    27   22   24 1
    28    1   25 1
    29    2   26 1
    30    3   27 1
    31    4   28 1
    32    5   29 1
    33    6   30 1
    34    7   31 1
    35    8   32 1
    36    9   33 1
    37   10   34 1
    38   19   35 1
    39   19   36 1
    40   19   37 1
    41   20   38 1
    42   20   39 1
    43   20   40 1
    44   21   41 1
    45   21   42 1
    46   21   43 1
@<TRIPOS>Similarity
1.6642
@<TRIPOS>ShapeSim
0.9497
@<TRIPOS>PharmSim
0.7145
# END
# Name:		AG-205/11218394
# Created and modified by SHAFTS on Thu Jun  3 03:39:13 2010

# 

@<TRIPOS>MOLECULE
AG-205/11218394
   36    39     0
SMALL
USER_CHARGE


@<TRIPOS>ATOM
      1 C1         -1.4133    2.5618    0.7416 C.ar      1 <1>        -0.1023
      2 C2          5.7805   -3.3989    2.6849 C.ar      1 <1>        -0.0959
      3 C3         -1.0465    1.3526    0.1509 C.ar      1 <1>        -0.0994
      4 C4         -0.5296    3.6409    0.7284 C.ar      1 <1>        -0.0946
      5 C5          5.4408   -2.1602    3.2288 C.ar      1 <1>        -0.0899
      6 C6          5.7053   -3.5998    1.3066 C.ar      1 <1>        -0.0864
      7 C7          0.2041    1.2226   -0.4531 C.ar      1 <1>        -0.0790
      8 C8          0.7210    3.5109    0.1245 C.ar      1 <1>        -0.0716
      9 C9          5.0259   -1.1223    2.3943 C.ar      1 <1>        -0.0562
     10 C10         5.2905   -2.5619    0.4722 C.ar      1 <1>        -0.0499
     11 C11         3.3252    0.3410    0.2483 C.2       1 <1>         0.0118
     12 C12         3.3730    1.2723   -0.7482 C.ar      1 <1>         0.0255
     13 C13         1.0879    2.3017   -0.4663 C.ar      1 <1>        -0.0238
     14 C14         4.6611    1.1515   -1.3852 C.ar      1 <1>         0.0486
     15 C15         4.9508   -1.3231    1.0160 C.ar      1 <1>        -0.0012
     16 C16         2.3698    2.1681   -1.0857 C.ar      1 <1>         0.0381
     17 C17         4.9967    1.9913   -2.4570 C.ar      1 <1>         0.0408
     18 C18         6.2744    1.9890   -3.2125 C.3       1 <1>         0.0150
     19 N1          5.3587    0.1739   -0.7817 N.2       1 <1>        -0.2975
     20 N2          2.7244    2.9675   -2.1269 N.ar      1 <1>        -0.2755
     21 N3          4.0198    2.8777   -2.8005 N.ar      1 <1>        -0.2741
     22 N4          4.5362   -0.2855    0.1829 N.pl3     1 <1>        -0.2724
     23 H1         -2.3878    2.6633    1.2103 H         1 <1>         0.1221
     24 H2          6.1053   -4.2068    3.3340 H         1 <1>         0.1269
     25 H3         -1.7351    0.5128    0.1596 H         1 <1>         0.1200
     26 H4         -0.8152    4.5832    1.1869 H         1 <1>         0.1225
     27 H5          5.5006   -2.0032    4.3017 H         1 <1>         0.1336
     28 H6          5.9714   -4.5643    0.8838 H         1 <1>         0.1333
     29 H7          0.4752    0.2735   -0.9096 H         1 <1>         0.1234
     30 H8          1.3991    4.3610    0.1213 H         1 <1>         0.1385
     31 H9          4.7648   -0.1614    2.8311 H         1 <1>         0.1331
     32 H10         5.2371   -2.7318   -0.6005 H         1 <1>         0.1461
     33 H11         2.5703    0.0706    0.9758 H         1 <1>         0.2384
     34 H12         6.2183    1.3032   -4.0698 H         1 <1>         0.0853
     35 H13         6.5228    2.9915   -3.5920 H         1 <1>         0.0808
     36 H14         7.1190    1.6773   -2.5797 H         1 <1>         0.0858
@<TRIPOS>BOND
     1    1    3 ar
     2    1    4 ar
     3    2    5 ar
     4    2    6 ar
     5    3    7 ar
     6    4    8 ar
     7    5    9 ar
     8    6   10 ar
     9    7   13 ar
    10    8   13 ar
    11    9   15 ar
    12   10   15 ar
    13   11   12 2
    14   11   22 1
    15   12   14 ar
    16   12   16 ar
    17   13   16 1
    18   14   17 ar
    19   14   19 2
    20   15   22 1
    21   16   20 ar
    22   17   18 1
    23   17   21 ar
    24   19   22 1
    25   20   21 ar
    26    1   23 1
    27    2   24 1
    28    3   25 1
    29    4   26 1
    30    5   27 1
    31    6   28 1
    32    7   29 1
    33    8   30 1
    34    9   31 1
    35   10   32 1
    36   11   33 1
    37   18   34 1
    38   18   35 1
    39   18   36 1
@<TRIPOS>Similarity
1.6491
@<TRIPOS>ShapeSim
0.9263
@<TRIPOS>PharmSim
0.7228
# END
# Name:		AO-081/40738502
# Created and modified by SHAFTS on Thu Jun  3 03:39:13 2010

# 

@<TRIPOS>MOLECULE
AO-081/40738502
   52    55     0
SMALL
USER_CHARGE


@<TRIPOS>ATOM
      1 C1          6.0825   -3.3468    2.4509 C.ar      1 <1>        -0.0996
      2 C2          6.3628   -3.1118    1.1048 C.ar      1 <1>        -0.0900
      3 C3          5.1473   -2.5550    3.1172 C.ar      1 <1>        -0.0907
      4 C4          0.2170    1.2440   -0.7439 C.ar      1 <1>        -0.0727
      5 C5          1.1283    2.8537    0.8103 C.ar      1 <1>        -0.0728
      6 C6         -1.0245    1.8757   -0.6703 C.ar      1 <1>        -0.0887
      7 C7         -0.1132    3.4855    0.8839 C.ar      1 <1>        -0.0905
      8 C8          5.7077   -2.0849    0.4251 C.ar      1 <1>        -0.0515
      9 C9          4.4923   -1.5281    2.4374 C.ar      1 <1>        -0.0522
     10 C10         5.1208    2.1382   -2.6676 C.ar      1 <1>        -0.0249
     11 C11         3.6233    1.3577   -0.9815 C.ar      1 <1>         0.0497
     12 C12         1.2933    1.7330   -0.0036 C.ar      1 <1>        -0.0259
     13 C13        -1.1895    2.9964    0.1436 C.ar      1 <1>        -0.1072
     14 C14         3.8782    2.2367   -2.0414 C.ar      1 <1>         0.0663
     15 C15         4.7725   -1.2930    1.0914 C.ar      1 <1>         0.0037
     16 C16         2.5760    1.0805   -0.0805 C.2       1 <1>         0.0472
     17 C17         6.0290    1.1872   -2.2148 C.ar      1 <1>        -0.0257
     18 C18         4.6172    0.4571   -0.6312 C.ar      1 <1>         0.0645
     19 C19         7.3567    1.0932   -2.8966 C.3       1 <1>         0.0062
     20 C20        -3.6180    2.6977    0.7432 C.3       1 <1>        -0.0616
     21 C21        -2.9717    4.1873   -1.1802 C.3       1 <1>        -0.0617
     22 C22        -2.5823    4.9186    1.1640 C.3       1 <1>        -0.0616
     23 C23        -2.5169    3.6718    0.2205 C.3       1 <1>        -0.0608
     24 C24         2.9005    3.2566   -2.5243 C.3       1 <1>         0.3661
     25 N1          2.8720    0.0920    0.7699 N.2       1 <1>        -0.2744
     26 N2          5.8292    0.3165   -1.1958 N.ar      1 <1>        -0.3449
     27 N3          4.1180   -0.2667    0.4111 N.pl3     1 <1>        -0.2436
     28 F1          3.3628    4.0043   -3.5690 F         1 <1>        -0.1817
     29 F2          1.7241    2.7197   -2.9620 F         1 <1>        -0.1768
     30 F3          2.5574    4.1530   -1.5547 F         1 <1>        -0.1761
     31 H1          6.5910   -4.1473    2.9801 H         1 <1>         0.1218
     32 H2          7.0899   -3.7290    0.5855 H         1 <1>         0.1289
     33 H3          4.9286   -2.7395    4.1651 H         1 <1>         0.1279
     34 H4          0.3290    0.3710   -1.3825 H         1 <1>         0.1313
     35 H5          1.9576    3.2471    1.3935 H         1 <1>         0.1393
     36 H6         -1.8576    1.4888   -1.2509 H         1 <1>         0.1260
     37 H7         -0.2336    4.3582    1.5202 H         1 <1>         0.1233
     38 H8          5.9347   -1.9129   -0.6242 H         1 <1>         0.1378
     39 H9          3.7650   -0.9188    2.9687 H         1 <1>         0.1365
     40 H10         5.3745    2.7952   -3.4949 H         1 <1>         0.1534
     41 H11         8.0801    1.7548   -2.4077 H         1 <1>         0.0871
     42 H12         7.7431    0.0677   -2.8679 H         1 <1>         0.0839
     43 H13         7.2786    1.3773   -3.9526 H         1 <1>         0.0845
     44 H14        -4.6050    3.1701    0.8093 H         1 <1>         0.0382
     45 H15        -3.7242    1.8246    0.0899 H         1 <1>         0.0403
     46 H16        -3.3559    2.3307    1.7427 H         1 <1>         0.0386
     47 H17        -3.9466    4.6842   -1.1278 H         1 <1>         0.0386
     48 H18        -2.2686    4.9071   -1.6156 H         1 <1>         0.0388
     49 H19        -3.0670    3.3489   -1.8802 H         1 <1>         0.0386
     50 H20        -3.5771    5.3796    1.1867 H         1 <1>         0.0386
     51 H21        -2.3329    4.6411    2.1948 H         1 <1>         0.0404
     52 H22        -1.8768    5.6916    0.8379 H         1 <1>         0.0382
@<TRIPOS>BOND
     1    1    2 ar
     2    1    3 ar
     3    2    8 ar
     4    3    9 ar
     5    4    6 ar
     6    4   12 ar
     7    5    7 ar
     8    5   12 ar
     9    6   13 ar
    10    7   13 ar
    11    8   15 ar
    12    9   15 ar
    13   10   14 ar
    14   10   17 ar
    15   11   14 ar
    16   11   16 1
    17   11   18 ar
    18   12   16 1
    19   13   23 1
    20   14   24 1
    21   15   27 1
    22   16   25 2
    23   17   19 1
    24   17   26 ar
    25   18   26 ar
    26   18   27 1
    27   20   23 1
    28   21   23 1
    29   22   23 1
    30   24   28 1
    31   24   29 1
    32   24   30 1
    33   25   27 1
    34    1   31 1
    35    2   32 1
    36    3   33 1
    37    4   34 1
    38    5   35 1
    39    6   36 1
    40    7   37 1
    41    8   38 1
    42    9   39 1
    43   10   40 1
    44   19   41 1
    45   19   42 1
    46   19   43 1
    47   20   44 1
    48   20   45 1
    49   20   46 1
    50   21   47 1
    51   21   48 1
    52   21   49 1
    53   22   50 1
    54   22   51 1
    55   22   52 1
@<TRIPOS>Similarity
1.6246
@<TRIPOS>ShapeSim
0.9074
@<TRIPOS>PharmSim
0.7172
# END
# Name:		AO-476/15578130
# Created and modified by SHAFTS on Thu Jun  3 03:39:13 2010

# 

@<TRIPOS>MOLECULE
AO-476/15578130
   37    40     0
SMALL
USER_CHARGE


@<TRIPOS>ATOM
      1 C1          5.5884   -3.4296    2.8708 C.ar      1 <1>        -0.1027
      2 C2          4.7003   -2.4501    3.3151 C.ar      1 <1>        -0.0953
      3 C3          6.0919   -3.3767    1.5711 C.ar      1 <1>        -0.0992
      4 C4          4.3156   -1.4177    2.4597 C.ar      1 <1>        -0.0721
      5 C5          5.7071   -2.3443    0.7155 C.ar      1 <1>        -0.0788
      6 C6          1.3936    3.0031    0.5016 C.ar      1 <1>        -0.0779
      7 C7          0.4791    1.3857   -1.0427 C.ar      1 <1>        -0.0746
      8 C8          0.1300    3.5746    0.6512 C.ar      1 <1>        -0.0682
      9 C9         -0.7845    1.9572   -0.8931 C.ar      1 <1>        -0.0662
     10 C10         3.1810    0.2964    0.3883 C.ar      1 <1>        -0.0226
     11 C11         5.6594    2.3935   -3.2754 C.ar      1 <1>         0.0457
     12 C12         3.8346    1.6926   -1.4617 C.ar      1 <1>         0.0630
     13 C13         1.5681    1.9086   -0.3455 C.ar      1 <1>        -0.0602
     14 C14         4.8190   -1.3648    1.1599 C.ar      1 <1>        -0.0261
     15 C15         2.8847    1.3136   -0.5019 C.ar      1 <1>        -0.0319
     16 C16        -0.9590    3.0517   -0.0459 C.ar      1 <1>        -0.0128
     17 C17         4.4207   -0.2959    0.2748 C.ar      1 <1>         0.0111
     18 C18         5.0723    1.0406   -1.5108 C.ar      1 <1>         0.0571
     19 C19         3.6102    2.7056   -2.3908 C.ar      1 <1>         0.0067
     20 N1          5.9827    1.3979   -2.4235 N.ar      1 <1>        -0.3274
     21 N2          4.5093    3.0807   -3.3158 N.ar      1 <1>        -0.3412
     22 N3          5.3511    0.0566   -0.6450 N.ar      1 <1>        -0.3278
     23 N4          2.3965    3.4263   -2.4275 N.pl3     1 <1>        -0.3669
     24 Cl1        -2.5175    3.7583    0.1381 Cl        1 <1>        -0.1361
     25 H1          5.8891   -4.2323    3.5377 H         1 <1>         0.1224
     26 H2          4.3094   -2.4902    4.3277 H         1 <1>         0.1203
     27 H3          6.7845   -4.1382    1.2249 H         1 <1>         0.1194
     28 H4          3.6225   -0.6614    2.8210 H         1 <1>         0.1435
     29 H5          6.1084   -2.3158   -0.2947 H         1 <1>         0.1291
     30 H6          2.2328    3.4221    1.0516 H         1 <1>         0.1396
     31 H7          0.5992    0.5334   -1.7075 H         1 <1>         0.1434
     32 H8          0.0085    4.4284    1.3133 H         1 <1>         0.1371
     33 H9         -1.6240    1.5401   -1.4434 H         1 <1>         0.1362
     34 H10         2.4728   -0.0262    1.1464 H         1 <1>         0.1464
     35 H11         6.4122    2.6641   -4.0058 H         1 <1>         0.3089
     36 H12         1.6610    3.1725   -1.8005 H         1 <1>         0.2774
     37 H13         2.2602    4.1126   -3.1408 H         1 <1>         0.2811
@<TRIPOS>BOND
     1    1    2 ar
     2    1    3 ar
     3    2    4 ar
     4    3    5 ar
     5    4   14 ar
     6    5   14 ar
     7    6    8 ar
     8    6   13 ar
     9    7    9 ar
    10    7   13 ar
    11    8   16 ar
    12    9   16 ar
    13   10   15 ar
    14   10   17 ar
    15   11   20 ar
    16   11   21 ar
    17   12   15 ar
    18   12   18 ar
    19   12   19 ar
    20   13   15 1
    21   14   17 1
    22   16   24 1
    23   17   22 ar
    24   18   20 ar
    25   18   22 ar
    26   19   21 ar
    27   19   23 1
    28    1   25 1
    29    2   26 1
    30    3   27 1
    31    4   28 1
    32    5   29 1
    33    6   30 1
    34    7   31 1
    35    8   32 1
    36    9   33 1
    37   10   34 1
    38   11   35 1
    39   23   36 1
    40   23   37 1
@<TRIPOS>Similarity
1.6218
@<TRIPOS>ShapeSim
0.9356
@<TRIPOS>PharmSim
0.6863
# END
# Name:		AI-031/11219617
# Created and modified by SHAFTS on Thu Jun  3 03:39:13 2010

# 

@<TRIPOS>MOLECULE
AI-031/11219617
   33    36     0
SMALL
USER_CHARGE


@<TRIPOS>ATOM
      1 C1          5.8301   -3.3995    2.6501 C.ar      1 <1>        -0.0956
      2 C2          5.4546   -2.1768    3.2064 C.ar      1 <1>        -0.0895
      3 C3          5.7824   -3.5810    1.2679 C.ar      1 <1>        -0.0862
      4 C4         -1.0702    1.7703    0.2702 C.2       1 <1>        -0.1007
      5 C5          5.0313   -1.1355    2.3804 C.ar      1 <1>        -0.0559
      6 C6          5.3591   -2.5397    0.4419 C.ar      1 <1>        -0.0498
      7 C7          0.0860    1.2843   -0.4061 C.2       1 <1>        -0.0806
      8 C8          3.3352    0.3233    0.2279 C.2       1 <1>         0.0141
      9 C9         -0.9234    3.0803    0.6701 C.2       1 <1>        -0.0444
     10 C10         3.3783    1.2688   -0.7553 C.ar      1 <1>         0.0314
     11 C11         4.6786    1.1846   -1.3731 C.ar      1 <1>         0.0520
     12 C12         4.9835   -1.3169    0.9983 C.ar      1 <1>        -0.0007
     13 C13         2.3612    2.1472   -1.0971 C.ar      1 <1>         0.0490
     14 C14         1.0724    2.2416   -0.4975 C.2       1 <1>         0.0198
     15 C15         5.0127    2.0459   -2.4281 C.ar      1 <1>         0.0436
     16 C16         6.3009    2.0793   -3.1650 C.3       1 <1>         0.0163
     17 N1          5.3879    0.2143   -0.7715 N.2       1 <1>        -0.2953
     18 N2          2.7146    2.9681   -2.1218 N.ar      1 <1>        -0.2659
     19 N3          4.0221    2.9156   -2.7756 N.ar      1 <1>        -0.2688
     20 N4          4.5605   -0.2759    0.1737 N.pl3     1 <1>        -0.2709
     21 S1          0.6034    3.7190    0.2304 S.3       1 <1>        -0.1190
     22 H1          6.1614   -4.2100    3.2926 H         1 <1>         0.1273
     23 H2          5.4929   -2.0348    4.2824 H         1 <1>         0.1341
     24 H3          6.0764   -4.5330    0.8354 H         1 <1>         0.1335
     25 H4         -1.9645    1.1892    0.4536 H         1 <1>         0.1196
     26 H5          4.7421   -0.1871    2.8269 H         1 <1>         0.1336
     27 H6          5.3274   -2.6944   -0.6338 H         1 <1>         0.1465
     28 H7          0.1807    0.2814   -0.8040 H         1 <1>         0.1372
     29 H8          2.5754    0.0269    0.9397 H         1 <1>         0.2386
     30 H9         -1.6399    3.6929    1.1989 H         1 <1>         0.1722
     31 H10         6.2703    1.4046   -4.0324 H         1 <1>         0.0865
     32 H11         6.5348    3.0917   -3.5270 H         1 <1>         0.0867
     33 H12         7.1423    1.7752   -2.5243 H         1 <1>         0.0818
@<TRIPOS>BOND
     1    1    2 ar
     2    1    3 ar
     3    2    5 ar
     4    3    6 ar
     5    4    7 1
     6    4    9 2
     7    5   12 ar
     8    6   12 ar
     9    7   14 2
    10    8   10 2
    11    8   20 1
    12    9   21 1
    13   10   11 ar
    14   10   13 ar
    15   11   15 ar
    16   11   17 2
    17   12   20 1
    18   13   14 1
    19   13   18 ar
    20   14   21 1
    21   15   16 1
    22   15   19 ar
    23   17   20 1
    24   18   19 ar
    25    1   22 1
    26    2   23 1
    27    3   24 1
    28    4   25 1
    29    5   26 1
    30    6   27 1
    31    7   28 1
    32    8   29 1
    33    9   30 1
    34   16   31 1
    35   16   32 1
    36   16   33 1
@<TRIPOS>Similarity
1.6171
@<TRIPOS>ShapeSim
0.9263
@<TRIPOS>PharmSim
0.6908
# END
# Name:		AS-938/12583050
# Created and modified by SHAFTS on Thu Jun  3 03:39:13 2010

# 

@<TRIPOS>MOLECULE
AS-938/12583050
   39    42     0
SMALL
USER_CHARGE


@<TRIPOS>ATOM
      1 C1          5.7800   -3.3992    2.6847 C.ar      1 <1>        -0.0959
      2 C2          4.8839   -2.4403    3.1572 C.ar      1 <1>        -0.0899
      3 C3          6.2618   -3.3199    1.3781 C.ar      1 <1>        -0.0865
      4 C4          0.4719    1.1872    0.1070 C.ar      1 <1>        -0.0704
      5 C5          0.4499    3.5400   -0.4413 C.ar      1 <1>        -0.0778
      6 C6         -0.7792    1.3159    0.7101 C.ar      1 <1>        -0.0932
      7 C7         -0.8013    3.6689    0.1617 C.ar      1 <1>        -0.0980
      8 C8          4.4695   -1.4021    2.3228 C.ar      1 <1>        -0.0562
      9 C9          5.8472   -2.2817    0.5438 C.ar      1 <1>        -0.0500
     10 C10         3.3248    0.3402    0.2475 C.2       1 <1>         0.0117
     11 C11         3.3729    1.2721   -0.7484 C.ar      1 <1>         0.0255
     12 C12         1.0866    2.2992   -0.4686 C.ar      1 <1>        -0.0233
     13 C13        -1.4159    2.5567    0.7373 C.ar      1 <1>        -0.1142
     14 C14         4.6619    1.1529   -1.3840 C.ar      1 <1>         0.0484
     15 C15         4.9511   -1.3229    1.0162 C.ar      1 <1>        -0.0012
     16 C16         2.3693    2.1671   -1.0866 C.ar      1 <1>         0.0377
     17 C17         4.9980    1.9936   -2.4549 C.ar      1 <1>         0.0405
     18 C18        -2.7535    2.6946    1.3823 C.3       1 <1>        -0.0415
     19 C19         6.2765    1.9930   -3.2088 C.3       1 <1>         0.0148
     20 N1          5.3598    0.1756   -0.7803 N.2       1 <1>        -0.2977
     21 N2          2.7244    2.9675   -2.1269 N.ar      1 <1>        -0.2758
     22 N3          4.0206    2.8793   -2.7990 N.ar      1 <1>        -0.2744
     23 N4          4.5366   -0.2852    0.1832 N.pl3     1 <1>        -0.2725
     24 H1          6.1044   -4.2067    3.3345 H         1 <1>         0.1269
     25 H2          4.5098   -2.5011    4.1750 H         1 <1>         0.1336
     26 H3          6.9607   -4.0662    1.0115 H         1 <1>         0.1332
     27 H4          0.9557    0.2133    0.0944 H         1 <1>         0.1399
     28 H5          0.9159    4.4161   -0.8862 H         1 <1>         0.1247
     29 H6         -1.2502    0.4445    1.1571 H         1 <1>         0.1230
     30 H7         -1.2904    4.6393    0.1779 H         1 <1>         0.1207
     31 H8          3.7712   -0.6608    2.7037 H         1 <1>         0.1330
     32 H9          6.2312   -2.2314   -0.4723 H         1 <1>         0.1462
     33 H10         2.5694    0.0687    0.9740 H         1 <1>         0.2382
     34 H11        -2.6415    2.9434    2.4447 H         1 <1>         0.0586
     35 H12        -3.3485    3.4819    0.9014 H         1 <1>         0.0556
     36 H13        -3.3323    1.7652    1.3017 H         1 <1>         0.0548
     37 H14         6.2221    1.3077   -4.0666 H         1 <1>         0.0851
     38 H15         6.5245    2.9959   -3.5875 H         1 <1>         0.0856
     39 H16         7.1207    1.6817   -2.5753 H         1 <1>         0.0806
@<TRIPOS>BOND
     1    1    2 ar
     2    1    3 ar
     3    2    8 ar
     4    3    9 ar
     5    4    6 ar
     6    4   12 ar
     7    5    7 ar
     8    5   12 ar
     9    6   13 ar
    10    7   13 ar
    11    8   15 ar
    12    9   15 ar
    13   10   11 2
    14   10   23 1
    15   11   14 ar
    16   11   16 ar
    17   12   16 1
    18   13   18 1
    19   14   17 ar
    20   14   20 2
    21   15   23 1
    22   16   21 ar
    23   17   19 1
    24   17   22 ar
    25   20   23 1
    26   21   22 ar
    27    1   24 1
    28    2   25 1
    29    3   26 1
    30    4   27 1
    31    5   28 1
    32    6   29 1
    33    7   30 1
    34    8   31 1
    35    9   32 1
    36   10   33 1
    37   18   34 1
    38   18   35 1
    39   18   36 1
    40   19   37 1
    41   19   38 1
    42   19   39 1
@<TRIPOS>Similarity
1.6115
@<TRIPOS>ShapeSim
0.9190
@<TRIPOS>PharmSim
0.6925
# END
# Name:		AI-031/12583049
# Created and modified by SHAFTS on Thu Jun  3 03:39:13 2010

# 

@<TRIPOS>MOLECULE
AI-031/12583049
   36    39     0
SMALL
USER_CHARGE


@<TRIPOS>ATOM
      1 C1          5.7800   -3.3992    2.6847 C.ar      1 <1>        -0.0955
      2 C2          4.8839   -2.4403    3.1572 C.ar      1 <1>        -0.0896
      3 C3          6.2618   -3.3199    1.3781 C.ar      1 <1>        -0.0862
      4 C4          0.4719    1.1872    0.1070 C.ar      1 <1>        -0.0666
      5 C5          0.4501    3.5401   -0.4410 C.ar      1 <1>        -0.0592
      6 C6          4.4695   -1.4021    2.3228 C.ar      1 <1>        -0.0561
      7 C7          5.8472   -2.2817    0.5438 C.ar      1 <1>        -0.0499
      8 C8         -0.7791    1.3161    0.7104 C.ar      1 <1>        -0.0666
      9 C9         -0.8009    3.6691    0.1623 C.ar      1 <1>        -0.0618
     10 C10         3.3248    0.3402    0.2475 C.2       1 <1>         0.0119
     11 C11         3.3729    1.2721   -0.7484 C.ar      1 <1>         0.0255
     12 C12         1.0866    2.2992   -0.4686 C.ar      1 <1>        -0.0167
     13 C13         4.6619    1.1529   -1.3840 C.ar      1 <1>         0.0496
     14 C14         4.9511   -1.3229    1.0162 C.ar      1 <1>        -0.0009
     15 C15        -1.4155    2.5570    0.7380 C.ar      1 <1>        -0.0116
     16 C16         2.3693    2.1671   -1.0866 C.ar      1 <1>         0.0402
     17 C17         4.9980    1.9936   -2.4549 C.ar      1 <1>         0.0419
     18 C18         6.2765    1.9930   -3.2088 C.3       1 <1>         0.0159
     19 N1          5.3598    0.1756   -0.7803 N.2       1 <1>        -0.2965
     20 N2          2.7244    2.9675   -2.1269 N.ar      1 <1>        -0.2740
     21 N3          4.0206    2.8793   -2.7990 N.ar      1 <1>        -0.2728
     22 N4          4.5366   -0.2852    0.1832 N.pl3     1 <1>        -0.2719
     23 Cl1        -2.9585    2.7156    1.4839 Cl        1 <1>        -0.1382
     24 H1          6.1044   -4.2067    3.3345 H         1 <1>         0.1273
     25 H2          4.5098   -2.5011    4.1750 H         1 <1>         0.1339
     26 H3          6.9607   -4.0662    1.0115 H         1 <1>         0.1335
     27 H4          0.9554    0.2133    0.0937 H         1 <1>         0.1357
     28 H5          0.9167    4.4165   -0.8846 H         1 <1>         0.1509
     29 H6          3.7712   -0.6608    2.7037 H         1 <1>         0.1333
     30 H7          6.2312   -2.2314   -0.4723 H         1 <1>         0.1464
     31 H8         -1.2459    0.4416    1.1569 H         1 <1>         0.1369
     32 H9         -1.2848    4.6424    0.1776 H         1 <1>         0.1393
     33 H10         2.5694    0.0687    0.9740 H         1 <1>         0.2384
     34 H11         6.2221    1.3077   -4.0666 H         1 <1>         0.0860
     35 H12         6.5245    2.9959   -3.5875 H         1 <1>         0.0813
     36 H13         7.1207    1.6817   -2.5753 H         1 <1>         0.0863
@<TRIPOS>BOND
     1    1    2 ar
     2    1    3 ar
     3    2    6 ar
     4    3    7 ar
     5    4    8 ar
     6    4   12 ar
     7    5    9 ar
     8    5   12 ar
     9    6   14 ar
    10    7   14 ar
    11    8   15 ar
    12    9   15 ar
    13   10   11 2
    14   10   22 1
    15   11   13 ar
    16   11   16 ar
    17   12   16 1
    18   13   17 ar
    19   13   19 2
    20   14   22 1
    21   15   23 1
    22   16   20 ar
    23   17   18 1
    24   17   21 ar
    25   19   22 1
    26   20   21 ar
    27    1   24 1
    28    2   25 1
    29    3   26 1
    30    4   27 1
    31    5   28 1
    32    6   29 1
    33    7   30 1
    34    8   31 1
    35    9   32 1
    36   10   33 1
    37   18   34 1
    38   18   35 1
    39   18   36 1
@<TRIPOS>Similarity
1.6113
@<TRIPOS>ShapeSim
0.9188
@<TRIPOS>PharmSim
0.6925
# END
# Name:		AI-031/12583059
# Created and modified by SHAFTS on Thu Jun  3 03:39:13 2010

# 

@<TRIPOS>MOLECULE
AI-031/12583059
   39    42     0
SMALL
USER_CHARGE


@<TRIPOS>ATOM
      1 C1         -1.4153    2.5131    0.7504 C.ar      1 <1>        -0.1023
      2 C2         -0.7692    1.2774    0.7160 C.ar      1 <1>        -0.0994
      3 C3         -0.8108    3.6324    0.1782 C.ar      1 <1>        -0.0947
      4 C4          0.4816    1.1610    0.1095 C.ar      1 <1>        -0.0790
      5 C5          0.4400    3.5161   -0.4282 C.ar      1 <1>        -0.0716
      6 C6          4.9297   -2.4486    3.1316 C.ar      1 <1>        -0.0852
      7 C7          6.3090   -3.3078    1.3438 C.ar      1 <1>        -0.0886
      8 C8          4.5044   -1.4094    2.3040 C.ar      1 <1>        -0.0488
      9 C9          5.8836   -2.2686    0.5162 C.ar      1 <1>        -0.0551
     10 C10         3.3408    0.3349    0.2392 C.2       1 <1>         0.0115
     11 C11         3.3794    1.2715   -0.7526 C.ar      1 <1>         0.0252
     12 C12         1.0862    2.2803   -0.4626 C.ar      1 <1>        -0.0238
     13 C13         5.8321   -3.3977    2.6515 C.ar      1 <1>        -0.1087
     14 C14         4.6676    1.1647   -1.3920 C.ar      1 <1>         0.0483
     15 C15         4.9813   -1.3194    0.9964 C.ar      1 <1>        -0.0007
     16 C16         2.3683    2.1606   -1.0843 C.ar      1 <1>         0.0380
     17 C17         4.9948    2.0127   -2.4599 C.ar      1 <1>         0.0406
     18 C18         6.2869   -4.5088    3.5361 C.3       1 <1>        -0.0401
     19 C19         6.2713    2.0249   -3.2171 C.3       1 <1>         0.0149
     20 N1          5.3743    0.1900   -0.7944 N.2       1 <1>        -0.2977
     21 N2          2.7148    2.9681   -2.1220 N.ar      1 <1>        -0.2757
     22 N3          4.0100    2.8926   -2.7977 N.ar      1 <1>        -0.2743
     23 N4          4.5570   -0.2812    0.1691 N.pl3     1 <1>        -0.2727
     24 H1         -2.3899    2.6031    1.2212 H         1 <1>         0.1219
     25 H2         -1.2405    0.4055    1.1599 H         1 <1>         0.1200
     26 H3         -1.3139    4.5946    0.2034 H         1 <1>         0.1224
     27 H4          0.9723    0.1907    0.0907 H         1 <1>         0.1234
     28 H5          0.8986    4.3972   -0.8705 H         1 <1>         0.1385
     29 H6          4.5534   -2.5115    4.1492 H         1 <1>         0.1337
     30 H7          7.0123   -4.0427    0.9612 H         1 <1>         0.1341
     31 H8          3.8013   -0.6756    2.6910 H         1 <1>         0.1477
     32 H9          6.2639   -2.2109   -0.5009 H         1 <1>         0.1346
     33 H10         2.5892    0.0545    0.9663 H         1 <1>         0.2380
     34 H11         5.6196   -5.3737    3.4370 H         1 <1>         0.0606
     35 H12         7.3073   -4.8261    3.2850 H         1 <1>         0.0569
     36 H13         6.3009   -4.1992    4.5894 H         1 <1>         0.0568
     37 H14         6.2198    1.3430   -4.0778 H         1 <1>         0.0852
     38 H15         6.5109    3.0314   -3.5919 H         1 <1>         0.0856
     39 H16         7.1195    1.7172   -2.5870 H         1 <1>         0.0808
@<TRIPOS>BOND
     1    1    2 ar
     2    1    3 ar
     3    2    4 ar
     4    3    5 ar
     5    4   12 ar
     6    5   12 ar
     7    6    8 ar
     8    6   13 ar
     9    7    9 ar
    10    7   13 ar
    11    8   15 ar
    12    9   15 ar
    13   10   11 2
    14   10   23 1
    15   11   14 ar
    16   11   16 ar
    17   12   16 1
    18   13   18 1
    19   14   17 ar
    20   14   20 2
    21   15   23 1
    22   16   21 ar
    23   17   19 1
    24   17   22 ar
    25   20   23 1
    26   21   22 ar
    27    1   24 1
    28    2   25 1
    29    3   26 1
    30    4   27 1
    31    5   28 1
    32    6   29 1
    33    7   30 1
    34    8   31 1
    35    9   32 1
    36   10   33 1
    37   18   34 1
    38   18   35 1
    39   18   36 1
    40   19   37 1
    41   19   38 1
    42   19   39 1
@<TRIPOS>Similarity
1.6105
@<TRIPOS>ShapeSim
0.9181
@<TRIPOS>PharmSim
0.6924
# END
# Name:		AI-031/12583052
# Created and modified by SHAFTS on Thu Jun  3 03:39:13 2010

# 

@<TRIPOS>MOLECULE
AI-031/12583052
   36    39     0
SMALL
USER_CHARGE


@<TRIPOS>ATOM
      1 C1         -1.4115    2.5188    0.7572 C.ar      1 <1>        -0.1020
      2 C2         -0.7665    1.2825    0.7225 C.ar      1 <1>        -0.0993
      3 C3         -0.8067    3.6371    0.1834 C.ar      1 <1>        -0.0944
      4 C4          0.4832    1.1645    0.1142 C.ar      1 <1>        -0.0790
      5 C5          0.4430    3.5193   -0.4249 C.ar      1 <1>        -0.0715
      6 C6          4.5063   -1.4075    2.3039 C.ar      1 <1>        -0.0375
      7 C7          5.8823   -2.2708    0.5155 C.ar      1 <1>        -0.0437
      8 C8          4.9310   -2.4464    3.1322 C.ar      1 <1>        -0.0538
      9 C9          6.3071   -3.3096    1.3437 C.ar      1 <1>        -0.0573
     10 C10         3.3418    0.3357    0.2400 C.2       1 <1>         0.0126
     11 C11         3.3798    1.2716   -0.7525 C.ar      1 <1>         0.0268
     12 C12         1.0880    2.2829   -0.4595 C.ar      1 <1>        -0.0237
     13 C13         4.6669    1.1632   -1.3938 C.ar      1 <1>         0.0499
     14 C14         4.9819   -1.3198    0.9956 C.ar      1 <1>         0.0063
     15 C15         5.8314   -3.3974    2.6520 C.ar      1 <1>        -0.0047
     16 C16         2.3690    2.1615   -1.0832 C.ar      1 <1>         0.0389
     17 C17         4.9932    2.0103   -2.4627 C.ar      1 <1>         0.0417
     18 C18         6.2686    2.0208   -3.2219 C.3       1 <1>         0.0154
     19 N1          5.3735    0.1882   -0.7967 N.2       1 <1>        -0.2967
     20 N2          2.7146    2.9681   -2.1218 N.ar      1 <1>        -0.2746
     21 N3          4.0087    2.8909   -2.7995 N.ar      1 <1>        -0.2732
     22 N4          4.5573   -0.2816    0.1683 N.pl3     1 <1>        -0.2705
     23 Cl1         6.3571   -4.6776    3.6750 Cl        1 <1>        -0.1328
     24 H1         -2.3853    2.6100    1.2294 H         1 <1>         0.1223
     25 H2         -1.2380    0.4112    1.1677 H         1 <1>         0.1203
     26 H3         -1.3089    4.5998    0.2087 H         1 <1>         0.1226
     27 H4          0.9730    0.1937    0.0952 H         1 <1>         0.1234
     28 H5          0.9018    4.3996   -0.8685 H         1 <1>         0.1387
     29 H6          3.8043   -0.6730    2.6913 H         1 <1>         0.1583
     30 H7          6.2610   -2.2139   -0.5022 H         1 <1>         0.1453
     31 H8          4.5520   -2.5030    4.1494 H         1 <1>         0.1497
     32 H9          7.0086   -4.0439    0.9561 H         1 <1>         0.1500
     33 H10         2.5911    0.0565    0.9684 H         1 <1>         0.2397
     34 H11         6.2151    1.3385   -4.0821 H         1 <1>         0.0856
     35 H12         6.5085    3.0268   -3.5977 H         1 <1>         0.0860
     36 H13         7.1174    1.7126   -2.5929 H         1 <1>         0.0810
@<TRIPOS>BOND
     1    1    2 ar
     2    1    3 ar
     3    2    4 ar
     4    3    5 ar
     5    4   12 ar
     6    5   12 ar
     7    6    8 ar
     8    6   14 ar
     9    7    9 ar
    10    7   14 ar
    11    8   15 ar
    12    9   15 ar
    13   10   11 2
    14   10   22 1
    15   11   13 ar
    16   11   16 ar
    17   12   16 1
    18   13   17 ar
    19   13   19 2
    20   14   22 1
    21   15   23 1
    22   16   20 ar
    23   17   18 1
    24   17   21 ar
    25   19   22 1
    26   20   21 ar
    27    1   24 1
    28    2   25 1
    29    3   26 1
    30    4   27 1
    31    5   28 1
    32    6   29 1
    33    7   30 1
    34    8   31 1
    35    9   32 1
    36   10   33 1
    37   18   34 1
    38   18   35 1
    39   18   36 1
@<TRIPOS>Similarity
1.6096
@<TRIPOS>ShapeSim
0.9173
@<TRIPOS>PharmSim
0.6923
# END
# Name:		AS-980/15246972
# Created and modified by SHAFTS on Thu Jun  3 03:39:13 2010

# 

@<TRIPOS>MOLECULE
AS-980/15246972
   40    43     0
SMALL
USER_CHARGE


@<TRIPOS>ATOM
      1 C1         -1.1895    2.9961    0.1447 C.ar      1 <1>        -0.1026
      2 C2          6.0822   -3.3468    2.4510 C.ar      1 <1>        -0.1012
      3 C3         -1.0247    1.8762   -0.6703 C.ar      1 <1>        -0.0975
      4 C4         -0.1129    3.4846    0.8851 C.ar      1 <1>        -0.0965
      5 C5          6.3628   -3.1116    1.1051 C.ar      1 <1>        -0.0923
      6 C6          5.1467   -2.5551    3.1172 C.ar      1 <1>        -0.0911
      7 C7          0.2169    1.2446   -0.7448 C.ar      1 <1>        -0.0750
      8 C8          1.1285    2.8529    0.8106 C.ar      1 <1>        -0.0739
      9 C9          5.7079   -2.0847    0.4253 C.ar      1 <1>        -0.0531
     10 C10         4.4918   -1.5281    2.4373 C.ar      1 <1>        -0.0516
     11 C11         5.1216    2.1387   -2.6672 C.ar      1 <1>        -0.0579
     12 C12         3.6237    1.3579   -0.9816 C.ar      1 <1>         0.0231
     13 C13         1.2934    1.7329   -0.0044 C.ar      1 <1>        -0.0265
     14 C14         3.8789    2.2371   -2.0413 C.ar      1 <1>        -0.0798
     15 C15         4.7724   -1.2929    1.0914 C.ar      1 <1>         0.0022
     16 C16         2.5761    1.0805   -0.0810 C.2       1 <1>         0.0402
     17 C17         6.0298    1.1877   -2.2141 C.ar      1 <1>        -0.0415
     18 C18         4.6176    0.4574   -0.6311 C.ar      1 <1>         0.0521
     19 C19         2.9013    3.2570   -2.5244 C.3       1 <1>        -0.0261
     20 C20         7.3578    1.0938   -2.8955 C.3       1 <1>         0.0007
     21 N1          2.8719    0.0920    0.7695 N.2       1 <1>        -0.2832
     22 N2          5.8298    0.3169   -1.1953 N.ar      1 <1>        -0.3615
     23 N3          4.1181   -0.2666    0.4110 N.pl3     1 <1>        -0.2499
     24 H1         -2.1558    3.4886    0.2020 H         1 <1>         0.1215
     25 H2          6.5905   -4.1473    2.9804 H         1 <1>         0.1197
     26 H3         -1.8623    1.4965   -1.2478 H         1 <1>         0.1212
     27 H4         -0.2414    4.3573    1.5185 H         1 <1>         0.1211
     28 H5          7.0902   -3.7287    0.5859 H         1 <1>         0.1262
     29 H6          4.9277   -2.7397    4.1649 H         1 <1>         0.1275
     30 H7          0.3295    0.3725   -1.3847 H         1 <1>         0.1315
     31 H8          1.9578    3.2461    1.3940 H         1 <1>         0.1311
     32 H9          5.9353   -1.9125   -0.6239 H         1 <1>         0.1346
     33 H10         3.7643   -0.9190    2.9684 H         1 <1>         0.1373
     34 H11         5.3756    2.7958   -3.4943 H         1 <1>         0.1278
     35 H12         2.2648    2.8318   -3.3093 H         1 <1>         0.0704
     36 H13         2.2597    3.6098   -1.7074 H         1 <1>         0.0644
     37 H14         3.4147    4.1379   -2.9299 H         1 <1>         0.0677
     38 H15         8.0809    1.7554   -2.4064 H         1 <1>         0.0819
     39 H16         7.7442    0.0685   -2.8668 H         1 <1>         0.0799
     40 H17         7.2799    1.3780   -3.9516 H         1 <1>         0.0790
@<TRIPOS>BOND
     1    1    3 ar
     2    1    4 ar
     3    2    5 ar
     4    2    6 ar
     5    3    7 ar
     6    4    8 ar
     7    5    9 ar
     8    6   10 ar
     9    7   13 ar
    10    8   13 ar
    11    9   15 ar
    12   10   15 ar
    13   11   14 ar
    14   11   17 ar
    15   12   14 ar
    16   12   16 1
    17   12   18 ar
    18   13   16 1
    19   14   19 1
    20   15   23 1
    21   16   21 2
    22   17   20 1
    23   17   22 ar
    24   18   22 ar
    25   18   23 1
    26   21   23 1
    27    1   24 1
    28    2   25 1
    29    3   26 1
    30    4   27 1
    31    5   28 1
    32    6   29 1
    33    7   30 1
    34    8   31 1
    35    9   32 1
    36   10   33 1
    37   11   34 1
    38   19   35 1
    39   19   36 1
    40   19   37 1
    41   20   38 1
    42   20   39 1
    43   20   40 1
@<TRIPOS>Similarity
1.6055
@<TRIPOS>ShapeSim
0.9379
@<TRIPOS>PharmSim
0.6676
# END
# Name:		AG-690/11481219
# Created and modified by SHAFTS on Thu Jun  3 03:39:13 2010

# 

@<TRIPOS>MOLECULE
AG-690/11481219
   32    34     0
SMALL
USER_CHARGE


@<TRIPOS>ATOM
      1 C1          3.0406    2.8403   -2.1814 C.1       1 <1>         0.0815
      2 C2          5.9450   -3.4144    2.6029 C.ar      1 <1>        -0.1018
      3 C3          5.5694   -2.2140    3.2058 C.ar      1 <1>        -0.0952
      4 C4          5.8059   -3.5761    1.2244 C.ar      1 <1>        -0.0985
      5 C5          5.0548   -1.1752    2.4302 C.ar      1 <1>        -0.0739
      6 C6          5.2912   -2.5372    0.4488 C.ar      1 <1>        -0.0796
      7 C7          1.1529    2.8626    0.7863 C.ar      1 <1>        -0.0736
      8 C8          0.2404    1.2517   -0.7661 C.ar      1 <1>        -0.0751
      9 C9         -0.1262    3.3719    1.0097 C.ar      1 <1>        -0.0730
     10 C10        -1.0387    1.7611   -0.5426 C.ar      1 <1>        -0.0733
     11 C11         3.1113    0.2383    0.4785 C.ar      1 <1>        -0.0130
     12 C12         3.4888    1.7723   -1.3350 C.ar      1 <1>         0.1239
     13 C13         1.3363    1.8025   -0.1016 C.ar      1 <1>        -0.0519
     14 C14         4.9157   -1.3366    1.0517 C.ar      1 <1>        -0.0313
     15 C15         2.6631    1.2744   -0.3332 C.ar      1 <1>        -0.0017
     16 C16        -1.2220    2.8211    0.3454 C.ar      1 <1>        -0.0352
     17 C17         4.3832   -0.2613    0.2494 C.ar      1 <1>         0.0054
     18 C18         4.7439    1.2043   -1.4828 C.ar      1 <1>         0.0944
     19 N1          2.6782    3.7043   -2.8660 N.1       1 <1>        -0.3503
     20 N2          5.2140    0.1967   -0.7138 N.ar      1 <1>        -0.3425
     21 Br1        -2.9557    3.5100    0.6483 Br        1 <1>        -0.1033
     22 Br2         5.9553    1.8161   -2.8291 Br        1 <1>         0.0122
     23 H1          6.3473   -4.2225    3.2067 H         1 <1>         0.1232
     24 H2          5.6792   -2.0874    4.2788 H         1 <1>         0.1210
     25 H3          6.0994   -4.5099    0.7541 H         1 <1>         0.1208
     26 H4          4.7668   -0.2452    2.9150 H         1 <1>         0.1419
     27 H5          5.1893   -2.6774   -0.6247 H         1 <1>         0.1295
     28 H6          1.9972    3.3025    1.3118 H         1 <1>         0.1417
     29 H7          0.3670    0.4247   -1.4605 H         1 <1>         0.1350
     30 H8         -0.2521    4.1976    1.7053 H         1 <1>         0.1413
     31 H9         -1.8818    1.3207   -1.0683 H         1 <1>         0.1407
     32 H10         2.4852   -0.1682    1.2681 H         1 <1>         0.1609
@<TRIPOS>BOND
     1    1   12 1
     2    1   19 3
     3    2    3 ar
     4    2    4 ar
     5    3    5 ar
     6    4    6 ar
     7    5   14 ar
     8    6   14 ar
     9    7    9 ar
    10    7   13 ar
    11    8   10 ar
    12    8   13 ar
    13    9   16 ar
    14   10   16 ar
    15   11   15 ar
    16   11   17 ar
    17   12   15 ar
    18   12   18 ar
    19   13   15 1
    20   14   17 1
    21   16   21 1
    22   17   20 ar
    23   18   20 ar
    24   18   22 1
    25    2   23 1
    26    3   24 1
    27    4   25 1
    28    5   26 1
    29    6   27 1
    30    7   28 1
    31    8   29 1
    32    9   30 1
    33   10   31 1
    34   11   32 1
@<TRIPOS>Similarity
1.6022
@<TRIPOS>ShapeSim
0.9305
@<TRIPOS>PharmSim
0.6717
# END
# Name:		AK-087/42718235
# Created and modified by SHAFTS on Thu Jun  3 03:39:13 2010

# 

@<TRIPOS>MOLECULE
AK-087/42718235
   33    35     0
SMALL
USER_CHARGE


@<TRIPOS>ATOM
      1 C1          6.4895    1.5215   -1.7504 C.1       1 <1>         0.0328
      2 C2          6.0925   -3.3445    2.4434 C.ar      1 <1>        -0.0974
      3 C3          5.8522   -3.4539    1.0737 C.ar      1 <1>        -0.0915
      4 C4          5.6725   -2.2093    3.1367 C.ar      1 <1>        -0.0876
      5 C5          1.1782    3.0671   -0.3762 C.ar      1 <1>        -0.0644
      6 C6          0.1702    1.0294    0.4415 C.ar      1 <1>        -0.0639
      7 C7          5.1922   -2.4281    0.3974 C.ar      1 <1>        -0.0580
      8 C8          5.0124   -1.1835    2.4603 C.ar      1 <1>        -0.0514
      9 C9         -0.0601    3.7058   -0.3111 C.ar      1 <1>        -0.0661
     10 C10        -1.0681    1.6681    0.5066 C.ar      1 <1>        -0.0660
     11 C11         3.6142    1.3511   -0.9663 C.2       1 <1>        -0.0344
     12 C12         1.2934    1.7288    0.0000 C.ar      1 <1>        -0.0288
     13 C13         4.7722   -1.2928    1.0906 C.ar      1 <1>        -0.0081
     14 C14        -1.1833    3.0063    0.1304 C.ar      1 <1>        -0.0143
     15 C15         2.5682    1.0713   -0.0666 C.2       1 <1>         0.0107
     16 C16         4.6053    0.4626   -0.6278 C.2       1 <1>        -0.0000
     17 C17         5.9502    0.2614   -1.2022 C.3       1 <1>         0.1210
     18 N1          6.9044    2.5167   -2.1794 N.1       1 <1>        -0.3857
     19 N2          2.8671    0.0822    0.7798 N.2       1 <1>        -0.3099
     20 N3          4.1119   -0.2672    0.4134 N.pl3     1 <1>        -0.2878
     21 Cl1        -2.7118    3.7931    0.2098 Cl        1 <1>        -0.1421
     22 H1          6.6049   -4.1437    2.9708 H         1 <1>         0.1252
     23 H2          6.1780   -4.3383    0.5340 H         1 <1>         0.1295
     24 H3          5.8587   -2.1255    4.2035 H         1 <1>         0.1307
     25 H4          2.0440    3.6271   -0.7225 H         1 <1>         0.1426
     26 H5          0.2438   -0.0142    0.7383 H         1 <1>         0.1434
     27 H6          5.0105   -2.5263   -0.6702 H         1 <1>         0.1267
     28 H7          4.6897   -0.3044    3.0130 H         1 <1>         0.1406
     29 H8         -0.1351    4.7489   -0.6075 H         1 <1>         0.1364
     30 H9         -1.9348    1.1101    0.8513 H         1 <1>         0.1353
     31 H10         3.6486    2.0927   -1.7521 H         1 <1>         0.1381
     32 H11         5.9343   -0.4983   -2.0030 H         1 <1>         0.1659
     33 H12         6.6543   -0.1301   -0.4475 H         1 <1>         0.1790
@<TRIPOS>BOND
     1    1   17 1
     2    1   18 3
     3    2    3 ar
     4    2    4 ar
     5    3    7 ar
     6    4    8 ar
     7    5    9 ar
     8    5   12 ar
     9    6   10 ar
    10    6   12 ar
    11    7   13 ar
    12    8   13 ar
    13    9   14 ar
    14   10   14 ar
    15   11   15 1
    16   11   16 2
    17   12   15 1
    18   13   20 1
    19   14   21 1
    20   15   19 2
    21   16   17 1
    22   16   20 1
    23   19   20 1
    24    2   22 1
    25    3   23 1
    26    4   24 1
    27    5   25 1
    28    6   26 1
    29    7   27 1
    30    8   28 1
    31    9   29 1
    32   10   30 1
    33   11   31 1
    34   17   32 1
    35   17   33 1
@<TRIPOS>Similarity
1.5998
@<TRIPOS>ShapeSim
0.9143
@<TRIPOS>PharmSim
0.6855
# END
# Name:		AO-435/41051597
# Created and modified by SHAFTS on Thu Jun  3 03:39:13 2010

# 

@<TRIPOS>MOLECULE
AO-435/41051597
   35    38     0
SMALL
USER_CHARGE


@<TRIPOS>ATOM
      1 C1         -1.5044    3.2680    0.0467 C.ar      1 <1>        -0.1044
      2 C2          6.2969   -3.3948    2.3748 C.ar      1 <1>        -0.1044
      3 C3          4.6032    2.3323   -2.5732 C.ar      1 <1>        -0.1012
      4 C4          5.6670    1.4238   -2.2563 C.ar      1 <1>        -0.1012
      5 C5         -1.3469    2.1306   -0.7453 C.ar      1 <1>        -0.1004
      6 C6         -0.4344    3.7435    0.8048 C.ar      1 <1>        -0.0992
      7 C7          6.5001   -3.1133    1.0239 C.ar      1 <1>        -0.0992
      8 C8          5.3609   -2.6637    3.1065 C.ar      1 <1>        -0.1004
      9 C9          3.3682    2.3744   -1.8897 C.ar      1 <1>        -0.0928
     10 C10         5.6059    0.4631   -1.2230 C.ar      1 <1>        -0.0928
     11 C11        -0.1196    1.4688   -0.7791 C.ar      1 <1>        -0.0864
     12 C12         0.7929    3.0816    0.7709 C.ar      1 <1>        -0.0846
     13 C13         5.7675   -2.1006    0.4045 C.ar      1 <1>        -0.0846
     14 C14         4.6283   -1.6511    2.4871 C.ar      1 <1>        -0.0864
     15 C15         3.3165    1.4231   -0.8715 C.ar      1 <1>        -0.0719
     16 C16         4.3838    0.5115   -0.5536 C.ar      1 <1>        -0.0719
     17 C17         0.9504    1.9443   -0.0211 C.ar      1 <1>        -0.0659
     18 C18         4.8316   -1.3696    1.1362 C.ar      1 <1>        -0.0659
     19 C19         2.2236    1.2581   -0.0569 C.2       1 <1>        -0.0049
     20 C20         4.0711   -0.3198    0.4934 C.2       1 <1>        -0.0049
     21 S1          2.4885    0.0021    1.0910 S.3       1 <1>        -0.0805
     22 H1         -2.4598    3.7837    0.0726 H         1 <1>         0.1186
     23 H2          6.8669   -4.1837    2.8568 H         1 <1>         0.1186
     24 H3          4.7614    3.0334   -3.3927 H         1 <1>         0.1170
     25 H4          6.5780    1.4822   -2.8516 H         1 <1>         0.1170
     26 H5         -2.1803    1.7605   -1.3353 H         1 <1>         0.1199
     27 H6         -0.5566    4.6298    1.4207 H         1 <1>         0.1204
     28 H7          7.2291   -3.6825    0.4544 H         1 <1>         0.1203
     29 H8          5.2019   -2.8837    4.1581 H         1 <1>         0.1199
     30 H9          2.5844    3.0713   -2.1540 H         1 <1>         0.1241
     31 H10         6.4268   -0.2072   -1.0067 H         1 <1>         0.1241
     32 H11        -0.0121    0.5850   -1.4036 H         1 <1>         0.1242
     33 H12         1.6170    3.4642    1.3685 H         1 <1>         0.1278
     34 H13         5.9357   -1.8951   -0.6499 H         1 <1>         0.1279
     35 H14         3.9033   -1.0895    3.0714 H         1 <1>         0.1242
@<TRIPOS>BOND
     1    1    5 ar
     2    1    6 ar
     3    2    7 ar
     4    2    8 ar
     5    3    4 ar
     6    3    9 ar
     7    4   10 ar
     8    5   11 ar
     9    6   12 ar
    10    7   13 ar
    11    8   14 ar
    12    9   15 ar
    13   10   16 ar
    14   11   17 ar
    15   12   17 ar
    16   13   18 ar
    17   14   18 ar
    18   15   16 ar
    19   15   19 2
    20   16   20 2
    21   17   19 1
    22   18   20 1
    23   19   21 1
    24   20   21 1
    25    1   22 1
    26    2   23 1
    27    3   24 1
    28    4   25 1
    29    5   26 1
    30    6   27 1
    31    7   28 1
    32    8   29 1
    33    9   30 1
    34   10   31 1
    35   11   32 1
    36   12   33 1
    37   13   34 1
    38   14   35 1
@<TRIPOS>Similarity
1.5982
@<TRIPOS>ShapeSim
0.9442
@<TRIPOS>PharmSim
0.6539
# END
# Name:		AF-399/14664025
# Created and modified by SHAFTS on Thu Jun  3 03:39:13 2010

# 

@<TRIPOS>MOLECULE
AF-399/14664025
   29    32     0
SMALL
USER_CHARGE


@<TRIPOS>ATOM
      1 C1         -0.0149    1.1038   -0.2087 C.ar      1 <1>        -0.0900
      2 C2          1.1414    3.1840    0.2071 C.ar      1 <1>        -0.0826
      3 C3         -1.2353    1.7790   -0.1932 C.ar      1 <1>        -0.1019
      4 C4         -0.0791    3.8593    0.2225 C.ar      1 <1>        -0.0948
      5 C5          2.6829    0.0978    0.8787 C.2       1 <1>         0.0069
      6 C6          4.8470    3.1245   -3.5392 C.2       1 <1>         0.0700
      7 C7          1.1735    1.8062   -0.0084 C.ar      1 <1>        -0.0713
      8 C8          2.4323    1.1093   -0.0252 C.2       1 <1>        -0.0400
      9 C9          3.5414    1.3004   -0.8759 C.2       1 <1>         0.0295
     10 C10        -1.2673    3.1568    0.0223 C.ar      1 <1>        -0.1157
     11 C11         4.6103    0.4527   -0.6251 C.2       1 <1>         0.0643
     12 C12         3.7360    2.1931   -1.9176 C.2       1 <1>         0.0813
     13 C13         5.9529    1.2666   -2.2608 C.2       1 <1>         0.0737
     14 C14        -2.5727    3.8780    0.0373 C.3       1 <1>        -0.0433
     15 N1          3.6700    3.7135   -3.4587 N.2       1 <1>        -0.2676
     16 N2          2.9599    3.1194   -2.4236 N.2       1 <1>        -0.2592
     17 N3          5.8145    0.4068   -1.2865 N.2       1 <1>        -0.3264
     18 N4          4.9316    2.1586   -2.5859 N.pl3     1 <1>        -0.2491
     19 S1          4.2427   -0.5942    0.6781 S.3       1 <1>        -0.0465
     20 H1         -0.0072    0.0295   -0.3773 H         1 <1>         0.1226
     21 H2          2.0592    3.7458    0.3647 H         1 <1>         0.1261
     22 H3         -2.1565    1.2244   -0.3508 H         1 <1>         0.1159
     23 H4         -0.0954    4.9328    0.3910 H         1 <1>         0.1192
     24 H5          2.0309   -0.2814    1.6544 H         1 <1>         0.1933
     25 H6          5.6374    3.3511   -4.2401 H         1 <1>         0.2906
     26 H7          6.8853    1.3016   -2.8464 H         1 <1>         0.3317
     27 H8         -2.9839    3.9025    1.0539 H         1 <1>         0.0565
     28 H9         -2.4615    4.9108   -0.3179 H         1 <1>         0.0538
     29 H10        -3.3038    3.3925   -0.6221 H         1 <1>         0.0531
@<TRIPOS>BOND
     1    1    3 ar
     2    1    7 ar
     3    2    4 ar
     4    2    7 ar
     5    3   10 ar
     6    4   10 ar
     7    5    8 2
     8    5   19 1
     9    6   15 2
    10    6   18 1
    11    7    8 1
    12    8    9 1
    13    9   11 2
    14    9   12 1
    15   10   14 1
    16   11   17 1
    17   11   19 1
    18   12   16 2
    19   12   18 1
    20   13   17 2
    21   13   18 1
    22   15   16 1
    23    1   20 1
    24    2   21 1
    25    3   22 1
    26    4   23 1
    27    5   24 1
    28    6   25 1
    29   13   26 1
    30   14   27 1
    31   14   28 1
    32   14   29 1
@<TRIPOS>Similarity
1.5958
@<TRIPOS>ShapeSim
0.8551
@<TRIPOS>PharmSim
0.7407
# END
# Name:		AK-087/11538930
# Created and modified by SHAFTS on Thu Jun  3 03:39:13 2010

# 

@<TRIPOS>MOLECULE
AK-087/11538930
   36    38     0
SMALL
USER_CHARGE


@<TRIPOS>ATOM
      1 C1          6.4897    1.5222   -1.7496 C.1       1 <1>         0.0327
      2 C2          6.0926   -3.3445    2.4433 C.ar      1 <1>        -0.0978
      3 C3          5.8526   -3.4537    1.0737 C.ar      1 <1>        -0.0879
      4 C4          5.6723   -2.2095    3.1367 C.ar      1 <1>        -0.0919
      5 C5          1.1784    3.0667   -0.3763 C.ar      1 <1>        -0.0753
      6 C6          0.1697    1.0293    0.4414 C.ar      1 <1>        -0.0758
      7 C7         -0.0597    3.7059   -0.3112 C.ar      1 <1>        -0.0975
      8 C8         -1.0683    1.6685    0.5067 C.ar      1 <1>        -0.0976
      9 C9          5.1924   -2.4278    0.3973 C.ar      1 <1>        -0.0515
     10 C10         5.0121   -1.1836    2.4604 C.ar      1 <1>        -0.0582
     11 C11         3.6142    1.3513   -0.9662 C.2       1 <1>        -0.0354
     12 C12         1.2931    1.7284   -0.0001 C.ar      1 <1>        -0.0358
     13 C13        -1.1830    3.0068    0.1304 C.ar      1 <1>        -0.1163
     14 C14         4.7722   -1.2928    1.0906 C.ar      1 <1>        -0.0086
     15 C15         2.5682    1.0711   -0.0667 C.2       1 <1>         0.0077
     16 C16         4.6054    0.4628   -0.6275 C.2       1 <1>        -0.0011
     17 C17        -2.5060    3.6915    0.2009 C.3       1 <1>        -0.0429
     18 C18         5.9505    0.2620   -1.2017 C.3       1 <1>         0.1206
     19 N1          6.9045    2.5175   -2.1784 N.1       1 <1>        -0.3863
     20 N2          2.8669    0.0819    0.7797 N.2       1 <1>        -0.3116
     21 N3          4.1119   -0.2673    0.4135 N.pl3     1 <1>        -0.2892
     22 H1          6.6049   -4.1437    2.9707 H         1 <1>         0.1246
     23 H2          6.1786   -4.3380    0.5338 H         1 <1>         0.1303
     24 H3          5.8582   -2.1259    4.2036 H         1 <1>         0.1291
     25 H4          2.0444    3.6256   -0.7234 H         1 <1>         0.1324
     26 H5          0.2429   -0.0143    0.7383 H         1 <1>         0.1313
     27 H6         -0.1401    4.7490   -0.6054 H         1 <1>         0.1190
     28 H7         -1.9388    1.1169    0.8519 H         1 <1>         0.1201
     29 H8          5.0110   -2.5260   -0.6704 H         1 <1>         0.1402
     30 H9          4.6892   -0.3047    3.0132 H         1 <1>         0.1263
     31 H10         3.6486    2.0930   -1.7517 H         1 <1>         0.1366
     32 H11        -3.0455    3.5788   -0.7474 H         1 <1>         0.0575
     33 H12        -3.1270    3.2769    1.0057 H         1 <1>         0.0542
     34 H13        -2.3895    4.7630    0.4098 H         1 <1>         0.0539
     35 H14         5.9348   -0.4977   -2.0026 H         1 <1>         0.1655
     36 H15         6.6544   -0.1295   -0.4468 H         1 <1>         0.1784
@<TRIPOS>BOND
     1    1   18 1
     2    1   19 3
     3    2    3 ar
     4    2    4 ar
     5    3    9 ar
     6    4   10 ar
     7    5    7 ar
     8    5   12 ar
     9    6    8 ar
    10    6   12 ar
    11    7   13 ar
    12    8   13 ar
    13    9   14 ar
    14   10   14 ar
    15   11   15 1
    16   11   16 2
    17   12   15 1
    18   13   17 1
    19   14   21 1
    20   15   20 2
    21   16   18 1
    22   16   21 1
    23   20   21 1
    24    2   22 1
    25    3   23 1
    26    4   24 1
    27    5   25 1
    28    6   26 1
    29    7   27 1
    30    8   28 1
    31    9   29 1
    32   10   30 1
    33   11   31 1
    34   17   32 1
    35   17   33 1
    36   17   34 1
    37   18   35 1
    38   18   36 1
@<TRIPOS>Similarity
1.5950
@<TRIPOS>ShapeSim
0.9137
@<TRIPOS>PharmSim
0.6812
# END
# Name:		AN-919/13952015
# Created and modified by SHAFTS on Thu Jun  3 03:39:13 2010

# 

@<TRIPOS>MOLECULE
AN-919/13952015
   39    41     0
SMALL
USER_CHARGE


@<TRIPOS>ATOM
      1 C1          3.0414    2.8445   -2.1782 C.1       1 <1>         0.0761
      2 C2          5.9455   -3.4140    2.6033 C.ar      1 <1>        -0.1032
      3 C3          5.0276   -2.5202    3.1548 C.ar      1 <1>        -0.0992
      4 C4          6.3485   -3.2694    1.2758 C.ar      1 <1>        -0.0969
      5 C5          4.5126   -1.4819    2.3788 C.ar      1 <1>        -0.0793
      6 C6          5.8335   -2.2311    0.4997 C.ar      1 <1>        -0.0750
      7 C7          0.2241    0.9679   -0.2113 C.ar      1 <1>        -0.0867
      8 C8          1.1690    3.1469    0.2315 C.ar      1 <1>        -0.0856
      9 C9         -1.0550    1.4771    0.0119 C.ar      1 <1>        -0.0976
     10 C10        -0.1102    3.6562    0.4548 C.ar      1 <1>        -0.0975
     11 C11         3.1106    0.2370    0.4775 C.ar      1 <1>        -0.0191
     12 C12         3.4894    1.7734   -1.3337 C.ar      1 <1>         0.1149
     13 C13         1.3362    1.8027   -0.1015 C.ar      1 <1>        -0.0597
     14 C14         4.9155   -1.3373    1.0512 C.ar      1 <1>        -0.0322
     15 C15         2.6630    1.2744   -0.3330 C.ar      1 <1>        -0.0090
     16 C16        -1.2223    2.8213    0.3450 C.ar      1 <1>        -0.1140
     17 C17         4.3825   -0.2626    0.2484 C.ar      1 <1>        -0.0035
     18 C18         4.7445    1.2053   -1.4815 C.ar      1 <1>         0.0542
     19 C19        -2.5899    3.3658    0.5840 C.3       1 <1>        -0.0414
     20 C20         4.9097    1.4355   -4.2079 C.3       1 <1>         0.0096
     21 N1          2.6794    3.7104   -2.8608 N.1       1 <1>        -0.3601
     22 N2          5.2139    0.1965   -0.7137 N.ar      1 <1>        -0.3613
     23 S1          5.8972    1.7660   -2.7341 S.3       1 <1>        -0.1286
     24 H1          6.3477   -4.2213    3.2083 H         1 <1>         0.1214
     25 H2          4.7150   -2.6316    4.1889 H         1 <1>         0.1199
     26 H3          7.0643   -3.9642    0.8461 H         1 <1>         0.1190
     27 H4          3.7979   -0.7931    2.8233 H         1 <1>         0.1295
     28 H5          6.1573   -2.1306   -0.5335 H         1 <1>         0.1381
     29 H6          0.3381   -0.0823   -0.4696 H         1 <1>         0.1243
     30 H7          2.0260    3.8105    0.3202 H         1 <1>         0.1303
     31 H8         -1.9157    0.8192   -0.0747 H         1 <1>         0.1219
     32 H9         -0.2312    4.7049    0.7132 H         1 <1>         0.1224
     33 H10         2.4847   -0.1706    1.2666 H         1 <1>         0.1497
     34 H11        -2.8604    3.2681    1.6426 H         1 <1>         0.0588
     35 H12        -2.6510    4.4260    0.3057 H         1 <1>         0.0555
     36 H13        -3.3404    2.8361   -0.0172 H         1 <1>         0.0552
     37 H14         5.4680    1.7240   -5.1018 H         1 <1>         0.0797
     38 H15         3.9801    2.0085   -4.1679 H         1 <1>         0.0797
     39 H16         4.6711    0.3706   -4.2636 H         1 <1>         0.0889
@<TRIPOS>BOND
     1    1   12 1
     2    1   21 3
     3    2    3 ar
     4    2    4 ar
     5    3    5 ar
     6    4    6 ar
     7    5   14 ar
     8    6   14 ar
     9    7    9 ar
    10    7   13 ar
    11    8   10 ar
    12    8   13 ar
    13    9   16 ar
    14   10   16 ar
    15   11   15 ar
    16   11   17 ar
    17   12   15 ar
    18   12   18 ar
    19   13   15 1
    20   14   17 1
    21   16   19 1
    22   17   22 ar
    23   18   22 ar
    24   18   23 1
    25   20   23 1
    26    2   24 1
    27    3   25 1
    28    4   26 1
    29    5   27 1
    30    6   28 1
    31    7   29 1
    32    8   30 1
    33    9   31 1
    34   10   32 1
    35   11   33 1
    36   19   34 1
    37   19   35 1
    38   19   36 1
    39   20   37 1
    40   20   38 1
    41   20   39 1
@<TRIPOS>Similarity
1.5934
@<TRIPOS>ShapeSim
0.9453
@<TRIPOS>PharmSim
0.6481
# END
# Name:		AI-211/36556008
# Created and modified by SHAFTS on Thu Jun  3 03:39:13 2010

# 

@<TRIPOS>MOLECULE
AI-211/36556008
   36    38     0
SMALL
USER_CHARGE


@<TRIPOS>ATOM
      1 C1          3.0149    2.8918   -2.2181 C.1       1 <1>         0.0810
      2 C2          0.1847    1.0099   -0.2307 C.ar      1 <1>        -0.0734
      3 C3          1.1260    3.1909    0.2097 C.ar      1 <1>        -0.0748
      4 C4          5.0347   -1.1248    2.3904 C.ar      1 <1>        -0.0660
      5 C5          5.2677   -2.4819    0.4052 C.ar      1 <1>        -0.0617
      6 C6         -1.0950    1.5164   -0.0039 C.ar      1 <1>        -0.0656
      7 C7         -0.1537    3.6975    0.4364 C.ar      1 <1>        -0.0658
      8 C8          5.5557   -2.1637    3.1618 C.ar      1 <1>        -0.0659
      9 C9          5.7887   -3.5208    1.1765 C.ar      1 <1>        -0.0636
     10 C10         3.0781    0.2854    0.4491 C.ar      1 <1>        -0.0193
     11 C11         3.4426    1.8249   -1.3623 C.ar      1 <1>         0.1496
     12 C12         1.2953    1.8471   -0.1238 C.ar      1 <1>        -0.0511
     13 C13         4.8907   -1.2839    1.0121 C.ar      1 <1>        -0.0228
     14 C14         2.6228    1.3216   -0.3584 C.ar      1 <1>        -0.0017
     15 C15        -1.2642    2.8603    0.3295 C.ar      1 <1>        -0.0108
     16 C16         5.9326   -3.3616    2.5548 C.ar      1 <1>        -0.0120
     17 C17         4.3509   -0.2089    0.2139 C.ar      1 <1>        -0.0003
     18 C18         4.6993    1.2619   -1.5164 C.ar      1 <1>         0.1201
     19 C19         6.4205    2.7841   -2.1297 C.3       1 <1>         0.0422
     20 N1          2.6684    3.7559   -2.9110 N.1       1 <1>        -0.3643
     21 N2          5.1762    0.2544   -0.7515 N.ar      1 <1>        -0.3380
     22 O1          5.5463    1.7224   -2.4917 O.3       1 <1>        -0.3618
     23 Cl1        -2.8434    3.4842    0.6106 Cl        1 <1>        -0.1368
     24 Cl2         6.5740   -4.6436    3.5073 Cl        1 <1>        -0.1376
     25 H1          0.3004   -0.0399   -0.4897 H         1 <1>         0.1428
     26 H2          1.9820    3.8561    0.2977 H         1 <1>         0.1362
     27 H3          4.7452   -0.1971    2.8781 H         1 <1>         0.1431
     28 H4          5.1607   -2.6215   -0.6680 H         1 <1>         0.1514
     29 H5         -1.9517    0.8523   -0.0888 H         1 <1>         0.1388
     30 H6         -0.2706    4.7465    0.6966 H         1 <1>         0.1383
     31 H7          5.6608   -2.0270    4.2352 H         1 <1>         0.1370
     32 H8          6.0772   -4.4493    0.6904 H         1 <1>         0.1360
     33 H9          2.4568   -0.1255    1.2404 H         1 <1>         0.1473
     34 H10         7.0385    3.0571   -2.9885 H         1 <1>         0.1009
     35 H11         7.0540    2.4678   -1.2972 H         1 <1>         0.1009
     36 H12         5.8241    3.6470   -1.8239 H         1 <1>         0.1276
@<TRIPOS>BOND
     1    1   11 1
     2    1   20 3
     3    2    6 ar
     4    2   12 ar
     5    3    7 ar
     6    3   12 ar
     7    4    8 ar
     8    4   13 ar
     9    5    9 ar
    10    5   13 ar
    11    6   15 ar
    12    7   15 ar
    13    8   16 ar
    14    9   16 ar
    15   10   14 ar
    16   10   17 ar
    17   11   14 ar
    18   11   18 ar
    19   12   14 1
    20   13   17 1
    21   15   23 1
    22   16   24 1
    23   17   21 ar
    24   18   21 ar
    25   18   22 1
    26   19   22 1
    27    2   25 1
    28    3   26 1
    29    4   27 1
    30    5   28 1
    31    6   29 1
    32    7   30 1
    33    8   31 1
    34    9   32 1
    35   10   33 1
    36   19   34 1
    37   19   35 1
    38   19   36 1
@<TRIPOS>Similarity
1.5888
@<TRIPOS>ShapeSim
0.9393
@<TRIPOS>PharmSim
0.6495
# END
# Name:		AI-211/36556007
# Created and modified by SHAFTS on Thu Jun  3 03:39:13 2010

# 

@<TRIPOS>MOLECULE
AI-211/36556007
   36    38     0
SMALL
USER_CHARGE


@<TRIPOS>ATOM
      1 C1          3.1747    2.9016   -2.3227 C.1       1 <1>         0.0806
      2 C2          6.1921   -3.3521    2.3931 C.ar      1 <1>        -0.1025
      3 C3          5.2708   -2.4737    2.9632 C.ar      1 <1>        -0.0984
      4 C4          6.5761   -3.1928    1.0616 C.ar      1 <1>        -0.0961
      5 C5          4.7334   -1.4358    2.2018 C.ar      1 <1>        -0.0781
      6 C6          6.0386   -2.1549    0.3002 C.ar      1 <1>        -0.0738
      7 C7          1.3032    3.1743    0.1244 C.ar      1 <1>        -0.0671
      8 C8          0.0218    3.6697    0.3657 C.ar      1 <1>        -0.0543
      9 C9          0.3749    0.9879   -0.3171 C.ar      1 <1>        -0.0423
     10 C10         3.2851    0.2825    0.3305 C.ar      1 <1>        -0.0189
     11 C11         3.6195    1.8341   -1.4764 C.ar      1 <1>         0.1494
     12 C12         5.1173   -1.2764    0.8703 C.ar      1 <1>        -0.0295
     13 C13         1.4798    1.8334   -0.2170 C.ar      1 <1>        -0.0416
     14 C14         2.8134    1.3188   -0.4674 C.ar      1 <1>         0.0006
     15 C15        -1.0830    2.8243    0.2656 C.ar      1 <1>         0.0230
     16 C16        -0.9065    1.4833   -0.0757 C.ar      1 <1>         0.0259
     17 C17         4.5599   -0.1997    0.0810 C.ar      1 <1>        -0.0013
     18 C18         4.8794    1.2826   -1.6450 C.ar      1 <1>         0.1202
     19 C19         6.5817    2.8225   -2.2666 C.3       1 <1>         0.0422
     20 N1          2.8146    3.7661   -3.0080 N.1       1 <1>        -0.3643
     21 N2          5.3720    0.2754   -0.8897 N.ar      1 <1>        -0.3372
     22 O1          5.7133    1.7553   -2.6259 O.3       1 <1>        -0.3617
     23 Cl1        -2.6441    3.4970    0.5800 Cl        1 <1>        -0.1170
     24 Cl2        -2.2359    0.3863   -0.2113 Cl        1 <1>        -0.1182
     25 H1          6.6117   -4.1592    2.9866 H         1 <1>         0.1224
     26 H2          4.9730   -2.5966    4.0004 H         1 <1>         0.1206
     27 H3          7.2944   -3.8756    0.6175 H         1 <1>         0.1195
     28 H4          4.0165   -0.7590    2.6607 H         1 <1>         0.1310
     29 H5          6.3479   -2.0428   -0.7363 H         1 <1>         0.1395
     30 H6          2.1545    3.8464    0.2041 H         1 <1>         0.1436
     31 H7         -0.0970    4.7178    0.6298 H         1 <1>         0.1499
     32 H8          0.5143   -0.0578   -0.5848 H         1 <1>         0.1570
     33 H9          2.6747   -0.1375    1.1255 H         1 <1>         0.1473
     34 H10         7.1894    3.1051   -3.1298 H         1 <1>         0.1009
     35 H11         7.2257    2.5075   -1.4417 H         1 <1>         0.1009
     36 H12         5.9810    3.6787   -1.9508 H         1 <1>         0.1276
@<TRIPOS>BOND
     1    1   11 1
     2    1   20 3
     3    2    3 ar
     4    2    4 ar
     5    3    5 ar
     6    4    6 ar
     7    5   12 ar
     8    6   12 ar
     9    7    8 ar
    10    7   13 ar
    11    8   15 ar
    12    9   13 ar
    13    9   16 ar
    14   10   14 ar
    15   10   17 ar
    16   11   14 ar
    17   11   18 ar
    18   12   17 1
    19   13   14 1
    20   15   16 ar
    21   15   23 1
    22   16   24 1
    23   17   21 ar
    24   18   21 ar
    25   18   22 1
    26   19   22 1
    27    2   25 1
    28    3   26 1
    29    4   27 1
    30    5   28 1
    31    6   29 1
    32    7   30 1
    33    8   31 1
    34    9   32 1
    35   10   33 1
    36   19   34 1
    37   19   35 1
    38   19   36 1
@<TRIPOS>Similarity
1.5855
@<TRIPOS>ShapeSim
0.9341
@<TRIPOS>PharmSim
0.6515
# END
# Name:		AI-211/36556006
# Created and modified by SHAFTS on Thu Jun  3 03:39:13 2010

# 

@<TRIPOS>MOLECULE
AI-211/36556006
   39    41     0
SMALL
USER_CHARGE


@<TRIPOS>ATOM
      1 C1          3.0148    2.8918   -2.2178 C.1       1 <1>         0.0811
      2 C2          0.1847    1.0099   -0.2305 C.ar      1 <1>        -0.0860
      3 C3          1.1261    3.1910    0.2096 C.ar      1 <1>        -0.0848
      4 C4          5.0343   -1.1250    2.3905 C.ar      1 <1>        -0.0653
      5 C5          5.2679   -2.4819    0.4051 C.ar      1 <1>        -0.0610
      6 C6         -1.0950    1.5166   -0.0042 C.ar      1 <1>        -0.0972
      7 C7         -0.1536    3.6977    0.4359 C.ar      1 <1>        -0.0971
      8 C8          5.5557   -2.1637    3.1617 C.ar      1 <1>        -0.0740
      9 C9          5.7893   -3.5206    1.1764 C.ar      1 <1>        -0.0717
     10 C10         3.0779    0.2852    0.4493 C.ar      1 <1>        -0.0198
     11 C11         3.4425    1.8248   -1.3621 C.ar      1 <1>         0.1496
     12 C12         1.2953    1.8471   -0.1236 C.ar      1 <1>        -0.0579
     13 C13         4.8903   -1.2842    1.0121 C.ar      1 <1>        -0.0218
     14 C14         2.6226    1.3216   -0.3582 C.ar      1 <1>        -0.0038
     15 C15        -1.2642    2.8604    0.3291 C.ar      1 <1>        -0.1137
     16 C16         5.9333   -3.3615    2.5548 C.ar      1 <1>        -0.0378
     17 C17         4.3508   -0.2090    0.2140 C.ar      1 <1>         0.0000
     18 C18         4.6991    1.2618   -1.5161 C.ar      1 <1>         0.1194
     19 C19        -2.6324    3.4021    0.5713 C.3       1 <1>        -0.0412
     20 C20         6.4204    2.7839   -2.1294 C.3       1 <1>         0.0419
     21 N1          2.6684    3.7560   -2.9106 N.1       1 <1>        -0.3656
     22 N2          5.1760    0.2542   -0.7514 N.ar      1 <1>        -0.3390
     23 O1          5.5461    1.7223   -2.4915 O.3       1 <1>        -0.3622
     24 Br1         6.6408   -4.7689    3.5990 Br        1 <1>        -0.1064
     25 H1          0.3002   -0.0401   -0.4889 H         1 <1>         0.1252
     26 H2          1.9818    3.8564    0.2962 H         1 <1>         0.1314
     27 H3          4.7445   -0.1973    2.8781 H         1 <1>         0.1420
     28 H4          5.1626   -2.6210   -0.6681 H         1 <1>         0.1503
     29 H5         -1.9545    0.8569   -0.0886 H         1 <1>         0.1220
     30 H6         -0.2763    4.7462    0.6946 H         1 <1>         0.1226
     31 H7          5.6621   -2.0233    4.2344 H         1 <1>         0.1383
     32 H8          6.0786   -4.4474    0.6881 H         1 <1>         0.1373
     33 H9          2.4565   -0.1256    1.2406 H         1 <1>         0.1464
     34 H10        -2.9001    3.3040    1.6305 H         1 <1>         0.0590
     35 H11        -2.6964    4.4621    0.2931 H         1 <1>         0.0557
     36 H12        -3.3832    2.8707   -0.0279 H         1 <1>         0.0552
     37 H13         7.0385    3.0569   -2.9881 H         1 <1>         0.1005
     38 H14         7.0539    2.4676   -1.2968 H         1 <1>         0.1272
     39 H15         5.8241    3.6468   -1.8235 H         1 <1>         0.1005
@<TRIPOS>BOND
     1    1   11 1
     2    1   21 3
     3    2    6 ar
     4    2   12 ar
     5    3    7 ar
     6    3   12 ar
     7    4    8 ar
     8    4   13 ar
     9    5    9 ar
    10    5   13 ar
    11    6   15 ar
    12    7   15 ar
    13    8   16 ar
    14    9   16 ar
    15   10   14 ar
    16   10   17 ar
    17   11   14 ar
    18   11   18 ar
    19   12   14 1
    20   13   17 1
    21   15   19 1
    22   16   24 1
    23   17   22 ar
    24   18   22 ar
    25   18   23 1
    26   20   23 1
    27    2   25 1
    28    3   26 1
    29    4   27 1
    30    5   28 1
    31    6   29 1
    32    7   30 1
    33    8   31 1
    34    9   32 1
    35   10   33 1
    36   19   34 1
    37   19   35 1
    38   19   36 1
    39   20   37 1
    40   20   38 1
    41   20   39 1
@<TRIPOS>Similarity
1.5848
@<TRIPOS>ShapeSim
0.9373
@<TRIPOS>PharmSim
0.6475
# END
# Name:		AJ-916/40989368
# Created and modified by SHAFTS on Thu Jun  3 03:39:13 2010

# 

@<TRIPOS>MOLECULE
AJ-916/40989368
   36    39     0
SMALL
USER_CHARGE


@<TRIPOS>ATOM
      1 C1          5.4664   -2.1593    3.2180 C.ar      1 <1>        -0.0824
      2 C2          5.8266   -3.3963    2.6835 C.ar      1 <1>        -0.0849
      3 C3         -0.8077    1.2229    0.8024 C.ar      1 <1>        -0.0859
      4 C4          0.4380    1.1201    0.1835 C.ar      1 <1>        -0.0688
      5 C5          5.0318   -1.1356    2.3761 C.ar      1 <1>        -0.0455
      6 C6          5.7524   -3.6096    1.3072 C.ar      1 <1>        -0.0552
      7 C7         -1.4594    2.4549    0.8579 C.ar      1 <1>        -0.0771
      8 C8          0.3805    3.4815   -0.3243 C.ar      1 <1>        -0.0471
      9 C9          3.3024    0.3066    0.2777 C.2       1 <1>         0.0125
     10 C10         3.3277    1.2557   -0.7026 C.ar      1 <1>         0.0264
     11 C11         1.0322    2.2493   -0.3798 C.ar      1 <1>        -0.0127
     12 C12         4.6107    1.1633   -1.3545 C.ar      1 <1>         0.0546
     13 C13         4.9576   -1.3489    0.9997 C.ar      1 <1>         0.0289
     14 C14         5.3179   -2.5859    0.4651 C.ar      1 <1>         0.0445
     15 C15        -0.8653    3.5842    0.2946 C.ar      1 <1>        -0.0293
     16 C16         2.3094    2.1438   -1.0143 C.ar      1 <1>         0.0418
     17 C17         4.9243    2.0262   -2.4146 C.ar      1 <1>         0.0429
     18 C18         6.1940    2.0542   -3.1827 C.3       1 <1>         0.0162
     19 N1          5.3273    0.1847   -0.7754 N.2       1 <1>        -0.2882
     20 N2          2.6427    2.9659   -2.0447 N.ar      1 <1>        -0.2733
     21 N3          3.9322    2.9053   -2.7327 N.ar      1 <1>        -0.2724
     22 N4          4.5209   -0.3025    0.1892 N.pl3     1 <1>        -0.2638
     23 Cl1         5.2454   -2.8986   -1.2338 Cl        1 <1>        -0.0999
     24 Br1        -1.7481    5.2538    0.3715 Br        1 <1>        -0.1054
     25 H1          5.5252   -1.9936    4.2899 H         1 <1>         0.1410
     26 H2          6.1655   -4.1932    3.3392 H         1 <1>         0.1383
     27 H3         -1.2705    0.3438    1.2413 H         1 <1>         0.1327
     28 H4          0.9327    0.1525    0.1471 H         1 <1>         0.1339
     29 H5          4.7544   -0.1773    2.8090 H         1 <1>         0.1434
     30 H6          6.0389   -4.5791    0.9078 H         1 <1>         0.1472
     31 H7         -2.4300    2.5177    1.3440 H         1 <1>         0.1401
     32 H8          0.8450    4.3619   -0.7642 H         1 <1>         0.1560
     33 H9          2.5587    0.0134    1.0078 H         1 <1>         0.2375
     34 H10         6.1382    1.3829   -4.0514 H         1 <1>         0.0862
     35 H11         6.4253    3.0664   -3.5470 H         1 <1>         0.0810
     36 H12         7.0492    1.7428   -2.5640 H         1 <1>         0.0865
@<TRIPOS>BOND
     1    1    2 ar
     2    1    5 ar
     3    2    6 ar
     4    3    4 ar
     5    3    7 ar
     6    4   11 ar
     7    5   13 ar
     8    6   14 ar
     9    7   15 ar
    10    8   11 ar
    11    8   15 ar
    12    9   10 2
    13    9   22 1
    14   10   12 ar
    15   10   16 ar
    16   11   16 1
    17   12   17 ar
    18   12   19 2
    19   13   14 ar
    20   13   22 1
    21   14   23 1
    22   15   24 1
    23   16   20 ar
    24   17   18 1
    25   17   21 ar
    26   19   22 1
    27   20   21 ar
    28    1   25 1
    29    2   26 1
    30    3   27 1
    31    4   28 1
    32    5   29 1
    33    6   30 1
    34    7   31 1
    35    8   32 1
    36    9   33 1
    37   18   34 1
    38   18   35 1
    39   18   36 1
@<TRIPOS>Similarity
1.5838
@<TRIPOS>ShapeSim
0.9173
@<TRIPOS>PharmSim
0.6665
# END
# Name:		AG-690/11481222
# Created and modified by SHAFTS on Thu Jun  3 03:39:13 2010

# 

@<TRIPOS>MOLECULE
AG-690/11481222
   39    41     0
SMALL
USER_CHARGE


@<TRIPOS>ATOM
      1 C1          3.0646    2.8384   -2.1916 C.1       1 <1>         0.0802
      2 C2          5.9481   -3.4151    2.6019 C.ar      1 <1>        -0.1028
      3 C3          5.0301   -2.5221    3.1545 C.ar      1 <1>        -0.0986
      4 C4          6.3505   -3.2695    1.2743 C.ar      1 <1>        -0.0963
      5 C5          4.5145   -1.4833    2.3794 C.ar      1 <1>        -0.0782
      6 C6          5.8348   -2.2307    0.4992 C.ar      1 <1>        -0.0739
      7 C7          0.2225    0.9688   -0.2099 C.ar      1 <1>        -0.0740
      8 C8          1.1691    3.1479    0.2290 C.ar      1 <1>        -0.0726
      9 C9         -1.0564    1.4799    0.0112 C.ar      1 <1>        -0.0738
     10 C10        -0.1098    3.6590    0.4502 C.ar      1 <1>        -0.0736
     11 C11         3.1111    0.2364    0.4804 C.ar      1 <1>        -0.0200
     12 C12         3.4862    1.7716   -1.3326 C.ar      1 <1>         0.1493
     13 C13         1.3353    1.8028   -0.1009 C.ar      1 <1>        -0.0498
     14 C14         4.9169   -1.3376    1.0518 C.ar      1 <1>        -0.0299
     15 C15         2.6616    1.2727   -0.3304 C.ar      1 <1>        -0.0014
     16 C16        -1.2226    2.8248    0.3413 C.ar      1 <1>        -0.0364
     17 C17         4.3832   -0.2622    0.2500 C.ar      1 <1>        -0.0022
     18 C18         4.7416    1.2044   -1.4817 C.ar      1 <1>         0.1208
     19 C19         7.7875    0.7476   -2.1946 C.3       1 <1>        -0.0313
     20 C20         6.5058    0.7156   -2.9997 C.3       1 <1>         0.0317
     21 N1          2.7231    3.7024   -2.8871 N.1       1 <1>        -0.3655
     22 N2          5.2129    0.1967   -0.7135 N.ar      1 <1>        -0.3380
     23 O1          5.5931    1.6605   -2.4551 O.3       1 <1>        -0.3621
     24 Br1        -2.9551    3.5182    0.6401 Br        1 <1>        -0.1053
     25 H1          6.3507   -4.2229    3.2061 H         1 <1>         0.1221
     26 H2          4.7180   -2.6344    4.1887 H         1 <1>         0.1203
     27 H3          7.0662   -3.9636    0.8438 H         1 <1>         0.1193
     28 H4          3.7998   -0.7951    2.8248 H         1 <1>         0.1308
     29 H5          6.1583   -2.1292   -0.5340 H         1 <1>         0.1393
     30 H6          0.3358   -0.0818   -0.4664 H         1 <1>         0.1353
     31 H7          2.0265    3.8109    0.3169 H         1 <1>         0.1418
     32 H8         -1.9131    0.8168   -0.0783 H         1 <1>         0.1396
     33 H9         -0.2220    4.7090    0.7065 H         1 <1>         0.1402
     34 H10         2.4859   -0.1710    1.2704 H         1 <1>         0.1462
     35 H11         8.2474    1.7390   -2.2326 H         1 <1>         0.0601
     36 H12         7.5931    0.4878   -1.1489 H         1 <1>         0.0478
     37 H13         8.5021    0.0116   -2.5777 H         1 <1>         0.0478
     38 H14         6.0510   -0.2786   -2.9575 H         1 <1>         0.1065
     39 H15         6.7018    0.9761   -4.0441 H         1 <1>         0.1065
@<TRIPOS>BOND
     1    1   12 1
     2    1   21 3
     3    2    3 ar
     4    2    4 ar
     5    3    5 ar
     6    4    6 ar
     7    5   14 ar
     8    6   14 ar
     9    7    9 ar
    10    7   13 ar
    11    8   10 ar
    12    8   13 ar
    13    9   16 ar
    14   10   16 ar
    15   11   15 ar
    16   11   17 ar
    17   12   15 ar
    18   12   18 ar
    19   13   15 1
    20   14   17 1
    21   16   24 1
    22   17   22 ar
    23   18   22 ar
    24   18   23 1
    25   19   20 1
    26   20   23 1
    27    2   25 1
    28    3   26 1
    29    4   27 1
    30    5   28 1
    31    6   29 1
    32    7   30 1
    33    8   31 1
    34    9   32 1
    35   10   33 1
    36   11   34 1
    37   19   35 1
    38   19   36 1
    39   19   37 1
    40   20   38 1
    41   20   39 1
@<TRIPOS>Similarity
1.5828
@<TRIPOS>ShapeSim
0.9346
@<TRIPOS>PharmSim
0.6481
# END
# Name:		AO-476/43250023
# Created and modified by SHAFTS on Thu Jun  3 03:39:13 2010

# 

@<TRIPOS>MOLECULE
AO-476/43250023
   37    40     0
SMALL
USER_CHARGE


@<TRIPOS>ATOM
      1 C1          5.7886   -3.5431    2.8306 C.ar      1 <1>        -0.1027
      2 C2          4.9033   -2.5646    3.2826 C.ar      1 <1>        -0.0954
      3 C3          6.2866   -3.4854    1.5289 C.ar      1 <1>        -0.0993
      4 C4          4.5160   -1.5284    2.4330 C.ar      1 <1>        -0.0721
      5 C5          5.8992   -2.4492    0.6792 C.ar      1 <1>        -0.0788
      6 C6          1.5900    2.9030    0.5054 C.ar      1 <1>        -0.0732
      7 C7          0.6671    1.2926   -1.0412 C.ar      1 <1>        -0.0766
      8 C8          0.3275    3.4749    0.6632 C.ar      1 <1>        -0.0416
      9 C9         -0.5953    1.8644   -0.8833 C.ar      1 <1>        -0.0438
     10 C10         3.3742    0.1952    0.3735 C.ar      1 <1>        -0.0229
     11 C11         5.8390    2.3049   -3.2923 C.ar      1 <1>         0.0456
     12 C12         4.0212    1.5983   -1.4737 C.ar      1 <1>         0.0627
     13 C13         1.7597    1.8119   -0.3469 C.ar      1 <1>        -0.0605
     14 C14         5.0139   -1.4707    1.1313 C.ar      1 <1>        -0.0262
     15 C15         3.0750    1.2163   -0.5113 C.ar      1 <1>        -0.0331
     16 C16        -0.7651    2.9556   -0.0311 C.ar      1 <1>         0.0652
     17 C17         4.6128   -0.3978    0.2522 C.ar      1 <1>         0.0109
     18 C18         5.2581    0.9454   -1.5306 C.ar      1 <1>         0.0569
     19 C19         3.7938    2.6153   -2.3976 C.ar      1 <1>         0.0066
     20 N1          6.1649    1.3055   -2.4458 N.ar      1 <1>        -0.3275
     21 N2          4.6893    2.9933   -3.3249 N.ar      1 <1>        -0.3414
     22 N3          5.5397   -0.0424   -0.6700 N.ar      1 <1>        -0.3281
     23 N4          2.5806    3.3372   -2.4262 N.pl3     1 <1>        -0.3671
     24 F1         -1.9774    3.5047    0.1204 F         1 <1>        -0.2639
     25 H1          6.0914   -4.3488    3.4929 H         1 <1>         0.1223
     26 H2          4.5168   -2.6085    4.2966 H         1 <1>         0.1203
     27 H3          6.9770   -4.2461    1.1767 H         1 <1>         0.1194
     28 H4          3.8252   -0.7729    2.8003 H         1 <1>         0.1434
     29 H5          6.2961   -2.4170   -0.3327 H         1 <1>         0.1291
     30 H6          2.4318    3.3193    1.0535 H         1 <1>         0.1464
     31 H7          0.7832    0.4423   -1.7090 H         1 <1>         0.1424
     32 H8          0.1951    4.3245    1.3266 H         1 <1>         0.1346
     33 H9         -1.4465    1.4605   -1.4235 H         1 <1>         0.1353
     34 H10         2.6689   -0.1299    1.1333 H         1 <1>         0.1462
     35 H11         6.5888    2.5778   -4.0247 H         1 <1>         0.3087
     36 H12         1.8476    3.0816   -1.7972 H         1 <1>         0.2809
     37 H13         2.4419    4.0266   -3.1361 H         1 <1>         0.2772
@<TRIPOS>BOND
     1    1    2 ar
     2    1    3 ar
     3    2    4 ar
     4    3    5 ar
     5    4   14 ar
     6    5   14 ar
     7    6    8 ar
     8    6   13 ar
     9    7    9 ar
    10    7   13 ar
    11    8   16 ar
    12    9   16 ar
    13   10   15 ar
    14   10   17 ar
    15   11   20 ar
    16   11   21 ar
    17   12   15 ar
    18   12   18 ar
    19   12   19 ar
    20   13   15 1
    21   14   17 1
    22   16   24 1
    23   17   22 ar
    24   18   20 ar
    25   18   22 ar
    26   19   21 ar
    27   19   23 1
    28    1   25 1
    29    2   26 1
    30    3   27 1
    31    4   28 1
    32    5   29 1
    33    6   30 1
    34    7   31 1
    35    8   32 1
    36    9   33 1
    37   10   34 1
    38   11   35 1
    39   23   36 1
    40   23   37 1
@<TRIPOS>Similarity
1.5820
@<TRIPOS>ShapeSim
0.9335
@<TRIPOS>PharmSim
0.6485
# END
# Name:		AJ-916/12583063
# Created and modified by SHAFTS on Thu Jun  3 03:39:13 2010

# 

@<TRIPOS>MOLECULE
AJ-916/12583063
   36    39     0
SMALL
USER_CHARGE


@<TRIPOS>ATOM
      1 C1         -1.0801    1.7444    0.2408 C.2       1 <1>        -0.1008
      2 C2          5.4450   -2.1821    3.2076 C.ar      1 <1>        -0.0850
      3 C3          5.7921   -3.5766    1.2654 C.ar      1 <1>        -0.0883
      4 C4          5.0217   -1.1395    2.3834 C.ar      1 <1>        -0.0487
      5 C5          5.3688   -2.5340    0.4411 C.ar      1 <1>        -0.0548
      6 C6          0.0830    1.2662   -0.4291 C.2       1 <1>        -0.0807
      7 C7          3.3324    0.3191    0.2238 C.2       1 <1>         0.0139
      8 C8         -0.9425    3.0538    0.6457 C.2       1 <1>        -0.0445
      9 C9          3.3776    1.2678   -0.7562 C.ar      1 <1>         0.0312
     10 C10         5.8302   -3.4007    2.6486 C.ar      1 <1>        -0.1085
     11 C11         4.6824    1.1919   -1.3655 C.ar      1 <1>         0.0518
     12 C12         4.9836   -1.3155    1.0002 C.ar      1 <1>        -0.0002
     13 C13         2.3585    2.1423   -1.1021 C.ar      1 <1>         0.0488
     14 C14         1.0653    2.2286   -0.5109 C.2       1 <1>         0.0197
     15 C15         5.0193    2.0581   -2.4156 C.ar      1 <1>         0.0434
     16 C16         6.2829   -4.5154    3.5298 C.3       1 <1>        -0.0400
     17 C17         6.3123    2.1001   -3.1436 C.3       1 <1>         0.0163
     18 N1          5.3923    0.2232   -0.7621 N.2       1 <1>        -0.2955
     19 N2          2.7147    2.9681   -2.1219 N.ar      1 <1>        -0.2660
     20 N3          4.0268    2.9240   -2.7670 N.ar      1 <1>        -0.2690
     21 N4          4.5611   -0.2740    0.1760 N.pl3     1 <1>        -0.2712
     22 S1          0.5841    3.7014    0.2183 S.3       1 <1>        -0.1191
     23 H1         -1.9727    1.1584    0.4165 H         1 <1>         0.1195
     24 H2          5.4717   -2.0369    4.2842 H         1 <1>         0.1339
     25 H3          6.0908   -4.5224    0.8212 H         1 <1>         0.1345
     26 H4          4.7248   -0.1945    2.8318 H         1 <1>         0.1481
     27 H5          5.3445   -2.6853   -0.6353 H         1 <1>         0.1351
     28 H6          0.1853    0.2650   -0.8295 H         1 <1>         0.1370
     29 H7          2.5694    0.0168    0.9295 H         1 <1>         0.2382
     30 H8         -1.6655    3.6613    1.1716 H         1 <1>         0.1722
     31 H9          5.4303   -5.1392    3.8252 H         1 <1>         0.0606
     32 H10         7.0194   -5.1513    3.0217 H         1 <1>         0.0569
     33 H11         6.7660   -4.1338    4.4388 H         1 <1>         0.0569
     34 H12         6.2909    1.4280   -4.0133 H         1 <1>         0.0864
     35 H13         6.5436    3.1147   -3.5009 H         1 <1>         0.0866
     36 H14         7.1508    1.7981   -2.4983 H         1 <1>         0.0817
@<TRIPOS>BOND
     1    1    6 1
     2    1    8 2
     3    2    4 ar
     4    2   10 ar
     5    3    5 ar
     6    3   10 ar
     7    4   12 ar
     8    5   12 ar
     9    6   14 2
    10    7    9 2
    11    7   21 1
    12    8   22 1
    13    9   11 ar
    14    9   13 ar
    15   10   16 1
    16   11   15 ar
    17   11   18 2
    18   12   21 1
    19   13   14 1
    20   13   19 ar
    21   14   22 1
    22   15   17 1
    23   15   20 ar
    24   18   21 1
    25   19   20 ar
    26    1   23 1
    27    2   24 1
    28    3   25 1
    29    4   26 1
    30    5   27 1
    31    6   28 1
    32    7   29 1
    33    8   30 1
    34   16   31 1
    35   16   32 1
    36   16   33 1
    37   17   34 1
    38   17   35 1
    39   17   36 1
@<TRIPOS>Similarity
1.5807
@<TRIPOS>ShapeSim
0.9172
@<TRIPOS>PharmSim
0.6635
# END
# Name:		AJ-916/12583056
# Created and modified by SHAFTS on Thu Jun  3 03:39:13 2010

# 

@<TRIPOS>MOLECULE
AJ-916/12583056
   33    36     0
SMALL
USER_CHARGE


@<TRIPOS>ATOM
      1 C1         -1.0737    1.7610    0.2600 C.2       1 <1>        -0.1004
      2 C2          5.0281   -1.1368    2.3814 C.ar      1 <1>        -0.0435
      3 C3          5.3625   -2.5377    0.4417 C.ar      1 <1>        -0.0373
      4 C4          5.4511   -2.1785    3.2067 C.ar      1 <1>        -0.0570
      5 C5          5.7857   -3.5795    1.2671 C.ar      1 <1>        -0.0536
      6 C6          0.0850    1.2779   -0.4141 C.2       1 <1>        -0.0805
      7 C7          3.3343    0.3218    0.2264 C.2       1 <1>         0.0149
      8 C8         -0.9301    3.0708    0.6616 C.2       1 <1>        -0.0441
      9 C9          3.3781    1.2684   -0.7556 C.ar      1 <1>         0.0327
     10 C10         4.6800    1.1872   -1.3705 C.ar      1 <1>         0.0533
     11 C11         4.9837   -1.3164    0.9989 C.ar      1 <1>         0.0068
     12 C12         5.8300   -3.4000    2.6496 C.ar      1 <1>        -0.0044
     13 C13         2.3603    2.1454   -1.0988 C.ar      1 <1>         0.0497
     14 C14         1.0699    2.2370   -0.5021 C.2       1 <1>         0.0199
     15 C15         5.0150    2.0503   -2.4238 C.ar      1 <1>         0.0445
     16 C16         6.3049    2.0867   -3.1575 C.3       1 <1>         0.0167
     17 N1          5.3895    0.2174   -0.7683 N.2       1 <1>        -0.2945
     18 N2          2.7146    2.9681   -2.1218 N.ar      1 <1>        -0.2650
     19 N3          4.0237    2.9186   -2.7726 N.ar      1 <1>        -0.2679
     20 N4          4.5608   -0.2752    0.1744 N.pl3     1 <1>        -0.2691
     21 S1          0.5966    3.7127    0.2263 S.3       1 <1>        -0.1190
     22 Cl1         6.3544   -4.6842    3.6680 Cl        1 <1>        -0.1325
     23 H1         -1.9673    1.1782    0.4407 H         1 <1>         0.1198
     24 H2          4.7358   -0.1900    2.8292 H         1 <1>         0.1457
     25 H3          5.3330   -2.6909   -0.6344 H         1 <1>         0.1587
     26 H4          5.4804   -2.0250    4.2825 H         1 <1>         0.1504
     27 H5          6.0777   -4.5260    0.8190 H         1 <1>         0.1499
     28 H6          0.1824    0.2756   -0.8129 H         1 <1>         0.1375
     29 H7          2.5734    0.0233    0.9361 H         1 <1>         0.2398
     30 H8         -1.6489    3.6816    1.1894 H         1 <1>         0.1728
     31 H9          6.2776    1.4129   -4.0258 H         1 <1>         0.0868
     32 H10         6.5379    3.0999   -3.5179 H         1 <1>         0.0869
     33 H11         7.1453    1.7834   -2.5153 H         1 <1>         0.0821
@<TRIPOS>BOND
     1    1    6 1
     2    1    8 2
     3    2    4 ar
     4    2   11 ar
     5    3    5 ar
     6    3   11 ar
     7    4   12 ar
     8    5   12 ar
     9    6   14 2
    10    7    9 2
    11    7   20 1
    12    8   21 1
    13    9   10 ar
    14    9   13 ar
    15   10   15 ar
    16   10   17 2
    17   11   20 1
    18   12   22 1
    19   13   14 1
    20   13   18 ar
    21   14   21 1
    22   15   16 1
    23   15   19 ar
    24   17   20 1
    25   18   19 ar
    26    1   23 1
    27    2   24 1
    28    3   25 1
    29    4   26 1
    30    5   27 1
    31    6   28 1
    32    7   29 1
    33    8   30 1
    34   16   31 1
    35   16   32 1
    36   16   33 1
@<TRIPOS>Similarity
1.5803
@<TRIPOS>ShapeSim
0.9163
@<TRIPOS>PharmSim
0.6640
# END
# Name:		AS-938/12583061
# Created and modified by SHAFTS on Thu Jun  3 03:39:13 2010

# 

@<TRIPOS>MOLECULE
AS-938/12583061
   42    45     0
SMALL
USER_CHARGE


@<TRIPOS>ATOM
      1 C1          0.4693    1.1808    0.0990 C.ar      1 <1>        -0.0704
      2 C2          0.4446    3.5342   -0.4469 C.ar      1 <1>        -0.0778
      3 C3         -0.7837    1.3066    0.6988 C.ar      1 <1>        -0.0933
      4 C4         -0.8084    3.6601    0.1530 C.ar      1 <1>        -0.0980
      5 C5          4.8815   -2.4440    3.1559 C.ar      1 <1>        -0.0887
      6 C6          6.2651   -3.3170    1.3781 C.ar      1 <1>        -0.0853
      7 C7          4.4664   -1.4052    2.3227 C.ar      1 <1>        -0.0551
      8 C8          5.8499   -2.2782    0.5449 C.ar      1 <1>        -0.0489
      9 C9          3.3234    0.3387    0.2461 C.2       1 <1>         0.0115
     10 C10         3.3724    1.2717   -0.7486 C.ar      1 <1>         0.0252
     11 C11         1.0835    2.2945   -0.4738 C.ar      1 <1>        -0.0234
     12 C12        -1.4226    2.5463    0.7258 C.ar      1 <1>        -0.1142
     13 C13         5.7810   -3.3998    2.6837 C.ar      1 <1>        -0.1088
     14 C14         4.6633    1.1555   -1.3809 C.ar      1 <1>         0.0482
     15 C15         4.9505   -1.3223    1.0173 C.ar      1 <1>        -0.0008
     16 C16         2.3681    2.1654   -1.0885 C.ar      1 <1>         0.0375
     17 C17         5.0008    1.9981   -2.4500 C.ar      1 <1>         0.0404
     18 C18        -2.7622    2.6811    1.3673 C.3       1 <1>        -0.0415
     19 C19         6.2249   -4.5105    3.5744 C.3       1 <1>        -0.0401
     20 C20         6.2813    2.0005   -3.2006 C.3       1 <1>         0.0147
     21 N1          5.3613    0.1788   -0.7764 N.2       1 <1>        -0.2978
     22 N2          2.7245    2.9675   -2.1270 N.ar      1 <1>        -0.2760
     23 N3          4.0227    2.8824   -2.7958 N.ar      1 <1>        -0.2746
     24 N4          4.5364   -0.2844    0.1843 N.pl3     1 <1>        -0.2728
     25 H1          0.9548    0.2078    0.0865 H         1 <1>         0.1399
     26 H2          0.9102    4.4115   -0.8896 H         1 <1>         0.1247
     27 H3         -1.2542    0.4339    1.1436 H         1 <1>         0.1230
     28 H4         -1.2993    4.6297    0.1690 H         1 <1>         0.1206
     29 H5          4.4996   -2.5013    4.1717 H         1 <1>         0.1340
     30 H6          6.9662   -4.0571    1.0017 H         1 <1>         0.1337
     31 H7          3.7655   -0.6661    2.7036 H         1 <1>         0.1345
     32 H8          6.2358   -2.2260   -0.4703 H         1 <1>         0.1477
     33 H9          2.5665    0.0650    0.9702 H         1 <1>         0.2378
     34 H10        -2.6534    2.9289    2.4303 H         1 <1>         0.0586
     35 H11        -3.3573    3.4678    0.8857 H         1 <1>         0.0555
     36 H12        -3.3391    1.7507    1.2841 H         1 <1>         0.0548
     37 H13         5.5532   -5.3719    3.4746 H         1 <1>         0.0606
     38 H14         7.2448   -4.8344    3.3295 H         1 <1>         0.0569
     39 H15         6.2352   -4.1974    4.6267 H         1 <1>         0.0567
     40 H16         6.2303    1.3160   -4.0593 H         1 <1>         0.0850
     41 H17         6.5284    3.0043   -3.5775 H         1 <1>         0.0855
     42 H18         7.1244    1.6901   -2.5651 H         1 <1>         0.0805
@<TRIPOS>BOND
     1    1    3 ar
     2    1   11 ar
     3    2    4 ar
     4    2   11 ar
     5    3   12 ar
     6    4   12 ar
     7    5    7 ar
     8    5   13 ar
     9    6    8 ar
    10    6   13 ar
    11    7   15 ar
    12    8   15 ar
    13    9   10 2
    14    9   24 1
    15   10   14 ar
    16   10   16 ar
    17   11   16 1
    18   12   18 1
    19   13   19 1
    20   14   17 ar
    21   14   21 2
    22   15   24 1
    23   16   22 ar
    24   17   20 1
    25   17   23 ar
    26   21   24 1
    27   22   23 ar
    28    1   25 1
    29    2   26 1
    30    3   27 1
    31    4   28 1
    32    5   29 1
    33    6   30 1
    34    7   31 1
    35    8   32 1
    36    9   33 1
    37   18   34 1
    38   18   35 1
    39   18   36 1
    40   19   37 1
    41   19   38 1
    42   19   39 1
    43   20   40 1
    44   20   41 1
    45   20   42 1
@<TRIPOS>Similarity
1.5761
@<TRIPOS>ShapeSim
0.9102
@<TRIPOS>PharmSim
0.6659
# END
# Name:		AS-938/12583060
# Created and modified by SHAFTS on Thu Jun  3 03:39:13 2010

# 

@<TRIPOS>MOLECULE
AS-938/12583060
   39    42     0
SMALL
USER_CHARGE


@<TRIPOS>ATOM
      1 C1          0.4693    1.1808    0.0990 C.ar      1 <1>        -0.0666
      2 C2          0.4448    3.5343   -0.4465 C.ar      1 <1>        -0.0592
      3 C3          4.8815   -2.4440    3.1559 C.ar      1 <1>        -0.0850
      4 C4          6.2651   -3.3170    1.3781 C.ar      1 <1>        -0.0884
      5 C5          4.4664   -1.4052    2.3227 C.ar      1 <1>        -0.0488
      6 C6          5.8499   -2.2782    0.5449 C.ar      1 <1>        -0.0550
      7 C7         -0.7836    1.3068    0.6992 C.ar      1 <1>        -0.0666
      8 C8         -0.8081    3.6603    0.1536 C.ar      1 <1>        -0.0619
      9 C9          3.3234    0.3387    0.2461 C.2       1 <1>         0.0116
     10 C10         3.3724    1.2717   -0.7486 C.ar      1 <1>         0.0252
     11 C11         1.0835    2.2945   -0.4738 C.ar      1 <1>        -0.0167
     12 C12         5.7810   -3.3998    2.6837 C.ar      1 <1>        -0.1085
     13 C13         4.6633    1.1555   -1.3809 C.ar      1 <1>         0.0493
     14 C14         4.9505   -1.3223    1.0173 C.ar      1 <1>        -0.0005
     15 C15        -1.4222    2.5465    0.7264 C.ar      1 <1>        -0.0116
     16 C16         2.3681    2.1654   -1.0885 C.ar      1 <1>         0.0400
     17 C17         5.0008    1.9981   -2.4500 C.ar      1 <1>         0.0417
     18 C18         6.2249   -4.5105    3.5744 C.3       1 <1>        -0.0399
     19 C19         6.2813    2.0005   -3.2006 C.3       1 <1>         0.0158
     20 N1          5.3613    0.1788   -0.7764 N.2       1 <1>        -0.2966
     21 N2          2.7245    2.9675   -2.1270 N.ar      1 <1>        -0.2742
     22 N3          4.0227    2.8824   -2.7958 N.ar      1 <1>        -0.2730
     23 N4          4.5364   -0.2844    0.1843 N.pl3     1 <1>        -0.2722
     24 Cl1        -2.9674    2.7016    1.4684 Cl        1 <1>        -0.1383
     25 H1          0.9546    0.2077    0.0859 H         1 <1>         0.1357
     26 H2          0.9110    4.4120   -0.8879 H         1 <1>         0.1509
     27 H3          4.4996   -2.5013    4.1717 H         1 <1>         0.1339
     28 H4          6.9662   -4.0571    1.0017 H         1 <1>         0.1344
     29 H5          3.7655   -0.6661    2.7036 H         1 <1>         0.1479
     30 H6          6.2358   -2.2260   -0.4703 H         1 <1>         0.1348
     31 H7         -1.2500    0.4310    1.1435 H         1 <1>         0.1368
     32 H8         -1.2937    4.6328    0.1686 H         1 <1>         0.1391
     33 H9          2.5665    0.0650    0.9702 H         1 <1>         0.2379
     34 H10         5.5532   -5.3719    3.4746 H         1 <1>         0.0608
     35 H11         7.2448   -4.8344    3.3295 H         1 <1>         0.0569
     36 H12         6.2352   -4.1974    4.6267 H         1 <1>         0.0570
     37 H13         6.2303    1.3160   -4.0593 H         1 <1>         0.0860
     38 H14         6.5284    3.0043   -3.5775 H         1 <1>         0.0812
     39 H15         7.1244    1.6901   -2.5651 H         1 <1>         0.0863
@<TRIPOS>BOND
     1    1    7 ar
     2    1   11 ar
     3    2    8 ar
     4    2   11 ar
     5    3    5 ar
     6    3   12 ar
     7    4    6 ar
     8    4   12 ar
     9    5   14 ar
    10    6   14 ar
    11    7   15 ar
    12    8   15 ar
    13    9   10 2
    14    9   23 1
    15   10   13 ar
    16   10   16 ar
    17   11   16 1
    18   12   18 1
    19   13   17 ar
    20   13   20 2
    21   14   23 1
    22   15   24 1
    23   16   21 ar
    24   17   19 1
    25   17   22 ar
    26   20   23 1
    27   21   22 ar
    28    1   25 1
    29    2   26 1
    30    3   27 1
    31    4   28 1
    32    5   29 1
    33    6   30 1
    34    7   31 1
    35    8   32 1
    36    9   33 1
    37   18   34 1
    38   18   35 1
    39   18   36 1
    40   19   37 1
    41   19   38 1
    42   19   39 1
@<TRIPOS>Similarity
1.5759
@<TRIPOS>ShapeSim
0.9100
@<TRIPOS>PharmSim
0.6659
# END
# Name:		AG-205/12497019
# Created and modified by SHAFTS on Thu Jun  3 03:39:13 2010

# 

@<TRIPOS>MOLECULE
AG-205/12497019
   34    36     0
SMALL
USER_CHARGE


@<TRIPOS>ATOM
      1 C1          1.1765    3.0649   -0.3791 C.ar      1 <1>        -0.0633
      2 C2          0.1735    1.0281    0.4473 C.ar      1 <1>        -0.0629
      3 C3          5.8425   -3.4583    1.0789 C.ar      1 <1>        -0.0882
      4 C4          5.6716   -2.2052    3.1374 C.ar      1 <1>        -0.0935
      5 C5          5.1871   -2.4314    0.3994 C.ar      1 <1>        -0.0505
      6 C6          5.0162   -1.1783    2.4579 C.ar      1 <1>        -0.0587
      7 C7         -0.0626    3.7021   -0.3123 C.ar      1 <1>        -0.0667
      8 C8         -1.0655    1.6654    0.5140 C.ar      1 <1>        -0.0667
      9 C9          3.6123    1.3516   -0.9717 C.2       1 <1>        -0.0225
     10 C10         1.2945    1.7279    0.0006 C.ar      1 <1>        -0.0268
     11 C11         6.0847   -3.3451    2.4479 C.ar      1 <1>        -0.1122
     12 C12         4.7740   -1.2915    1.0889 C.ar      1 <1>        -0.0053
     13 C13        -1.1835    3.0024    0.1343 C.ar      1 <1>        -0.0157
     14 C14         2.5700    1.0719   -0.0677 C.2       1 <1>         0.0067
     15 C15         4.6060    0.4653   -0.6350 C.2       1 <1>        -0.0203
     16 C16         6.7854   -4.4430    3.1744 C.3       1 <1>        -0.0425
     17 N1          2.8735    0.0849    0.7795 N.2       1 <1>        -0.3164
     18 N2          4.1175   -0.2633    0.4093 N.pl3     1 <1>        -0.2754
     19 N3          5.8378    0.2595   -1.1484 N.pl3     1 <1>        -0.3866
     20 Cl1        -2.7129    3.7873    0.2158 Cl        1 <1>        -0.1441
     21 H1          2.0404    3.6251   -0.7295 H         1 <1>         0.1425
     22 H2          0.2493   -0.0146    0.7467 H         1 <1>         0.1435
     23 H3          6.1612   -4.3430    0.5343 H         1 <1>         0.1303
     24 H4          5.8558   -2.1086    4.2041 H         1 <1>         0.1294
     25 H5          5.0039   -2.5325   -0.6677 H         1 <1>         0.1403
     26 H6          4.6995   -0.2956    3.0083 H         1 <1>         0.1268
     27 H7         -0.1398    4.7443   -0.6114 H         1 <1>         0.1351
     28 H8         -1.9305    1.1072    0.8627 H         1 <1>         0.1342
     29 H9          3.6423    2.0919   -1.7588 H         1 <1>         0.1203
     30 H10         7.8697   -4.2769    3.1636 H         1 <1>         0.0585
     31 H11         6.4535   -4.5049    4.2189 H         1 <1>         0.0548
     32 H12         6.5783   -5.4192    2.7170 H         1 <1>         0.0551
     33 H13         6.1836    0.7790   -1.9686 H         1 <1>         0.2643
     34 H14         6.4558   -0.4909   -0.8057 H         1 <1>         0.2768
@<TRIPOS>BOND
     1    1    7 ar
     2    1   10 ar
     3    2    8 ar
     4    2   10 ar
     5    3    5 ar
     6    3   11 ar
     7    4    6 ar
     8    4   11 ar
     9    5   12 ar
    10    6   12 ar
    11    7   13 ar
    12    8   13 ar
    13    9   14 1
    14    9   15 2
    15   10   14 1
    16   11   16 1
    17   12   18 1
    18   13   20 1
    19   14   17 2
    20   15   18 1
    21   15   19 1
    22   17   18 1
    23    1   21 1
    24    2   22 1
    25    3   23 1
    26    4   24 1
    27    5   25 1
    28    6   26 1
    29    7   27 1
    30    8   28 1
    31    9   29 1
    32   16   30 1
    33   16   31 1
    34   16   32 1
    35   19   33 1
    36   19   34 1
@<TRIPOS>Similarity
1.5753
@<TRIPOS>ShapeSim
0.8983
@<TRIPOS>PharmSim
0.6770
# END
# Name:		AE-848/41009149
# Created and modified by SHAFTS on Thu Jun  3 03:39:13 2010

# 

@<TRIPOS>MOLECULE
AE-848/41009149
   40    42     0
SMALL
USER_CHARGE


@<TRIPOS>ATOM
      1 C1          3.0523    2.8409   -2.1862 C.1       1 <1>         0.0890
      2 C2         -1.2223    2.8235    0.3433 C.ar      1 <1>        -0.1023
      3 C3          5.9470   -3.4147    2.6026 C.ar      1 <1>        -0.1036
      4 C4         -0.1267    3.3727    1.0093 C.ar      1 <1>        -0.0990
      5 C5         -1.0391    1.7638   -0.5450 C.ar      1 <1>        -0.0992
      6 C6          5.0286   -2.5215    3.1545 C.ar      1 <1>        -0.0997
      7 C7          6.3500   -3.2692    1.2752 C.ar      1 <1>        -0.0972
      8 C8          1.1523    2.8623    0.7867 C.ar      1 <1>        -0.0881
      9 C9          0.2398    1.2533   -0.7674 C.ar      1 <1>        -0.0873
     10 C10         4.5132   -1.4830    2.3790 C.ar      1 <1>        -0.0801
     11 C11         5.8346   -2.2307    0.4996 C.ar      1 <1>        -0.0753
     12 C12         3.1106    0.2363    0.4786 C.ar      1 <1>        -0.0202
     13 C13         3.4880    1.7728   -1.3328 C.ar      1 <1>         0.1409
     14 C14         1.3356    1.8026   -0.1016 C.ar      1 <1>        -0.0609
     15 C15         4.9162   -1.3375    1.0515 C.ar      1 <1>        -0.0336
     16 C16         2.6622    1.2734   -0.3319 C.ar      1 <1>        -0.0015
     17 C17         4.3827   -0.2625    0.2493 C.ar      1 <1>        -0.0020
     18 C18         4.7434    1.2054   -1.4809 C.ar      1 <1>         0.0604
     19 C19         6.5111    2.7868   -2.2120 C.3       1 <1>        -0.0219
     20 C20         5.5785    1.1121   -3.8164 C.3       1 <1>        -0.0218
     21 N1          2.6999    3.7047   -2.8764 N.1       1 <1>        -0.3630
     22 N2          5.2137    0.1970   -0.7131 N.ar      1 <1>        -0.3458
     23 N3          5.6008    1.7006   -2.4962 N.pl3     1 <1>        -0.3733
     24 H1         -2.2182    3.2199    0.5180 H         1 <1>         0.1219
     25 H2          6.3494   -4.2221    3.2072 H         1 <1>         0.1209
     26 H3         -0.2694    4.1968    1.7022 H         1 <1>         0.1212
     27 H4         -1.8920    1.3347   -1.0627 H         1 <1>         0.1215
     28 H5          4.7160   -2.6336    4.1886 H         1 <1>         0.1196
     29 H6          7.0660   -3.9634    0.8452 H         1 <1>         0.1186
     30 H7          1.9963    3.3012    1.3137 H         1 <1>         0.1231
     31 H8          0.3672    0.4266   -1.4622 H         1 <1>         0.1284
     32 H9          3.7982   -0.7948    2.8238 H         1 <1>         0.1287
     33 H10         6.1585   -2.1294   -0.5335 H         1 <1>         0.1378
     34 H11         2.4849   -0.1711    1.2682 H         1 <1>         0.1499
     35 H12         7.0899    3.0354   -3.1054 H         1 <1>         0.0845
     36 H13         7.2016    2.5022   -1.4134 H         1 <1>         0.0932
     37 H14         5.9548    3.6730   -1.8951 H         1 <1>         0.0692
     38 H15         6.2996    1.6164   -4.4648 H         1 <1>         0.0845
     39 H16         4.5820    1.2084   -4.2563 H         1 <1>         0.0694
     40 H17         5.8362    0.0510   -3.7617 H         1 <1>         0.0932
@<TRIPOS>BOND
     1    1   13 1
     2    1   21 3
     3    2    4 ar
     4    2    5 ar
     5    3    6 ar
     6    3    7 ar
     7    4    8 ar
     8    5    9 ar
     9    6   10 ar
    10    7   11 ar
    11    8   14 ar
    12    9   14 ar
    13   10   15 ar
    14   11   15 ar
    15   12   16 ar
    16   12   17 ar
    17   13   16 ar
    18   13   18 ar
    19   14   16 1
    20   15   17 1
    21   17   22 ar
    22   18   22 ar
    23   18   23 1
    24   19   23 1
    25   20   23 1
    26    2   24 1
    27    3   25 1
    28    4   26 1
    29    5   27 1
    30    6   28 1
    31    7   29 1
    32    8   30 1
    33    9   31 1
    34   10   32 1
    35   11   33 1
    36   12   34 1
    37   19   35 1
    38   19   36 1
    39   19   37 1
    40   20   38 1
    41   20   39 1
    42   20   40 1
@<TRIPOS>Similarity
1.5745
@<TRIPOS>ShapeSim
0.9120
@<TRIPOS>PharmSim
0.6625
# END
# Name:		AN-329/05740035
# Created and modified by SHAFTS on Thu Jun  3 03:39:13 2010

# 

@<TRIPOS>MOLECULE
AN-329/05740035
   44    47     0
SMALL
USER_CHARGE


@<TRIPOS>ATOM
      1 C1          5.9419   -3.5737    2.7705 C.ar      1 <1>        -0.1031
      2 C2          5.0334   -2.6484    3.2844 C.ar      1 <1>        -0.0992
      3 C3          6.3833   -3.4597    1.4522 C.ar      1 <1>        -0.0962
      4 C4          4.5663   -1.6091    2.4798 C.ar      1 <1>        -0.0787
      5 C5          5.9162   -2.4204    0.6478 C.ar      1 <1>        -0.0734
      6 C6          0.3818    0.9184   -0.2512 C.ar      1 <1>        -0.0776
      7 C7          1.3867    3.0732    0.1781 C.ar      1 <1>        -0.0866
      8 C8         -0.8857    1.4763   -0.0847 C.ar      1 <1>        -0.0530
      9 C9          0.1191    3.6311    0.3446 C.ar      1 <1>        -0.0654
     10 C10         3.2578    0.1032    0.5319 C.ar      1 <1>        -0.0242
     11 C11         3.7009    1.6124   -1.2951 C.ar      1 <1>         0.0137
     12 C12         1.5180    1.7168   -0.1198 C.ar      1 <1>        -0.0649
     13 C13         5.0076   -1.4950    1.1615 C.ar      1 <1>        -0.0292
     14 C14         2.8304    1.1393   -0.2922 C.ar      1 <1>        -0.0426
     15 C15         3.5688    2.6399   -2.2834 C.2       1 <1>        -0.0379
     16 C16        -1.0171    2.8327    0.2132 C.ar      1 <1>        -0.0118
     17 C17         4.5234   -0.4176    0.3281 C.ar      1 <1>         0.0032
     18 C18         4.6917    2.7633   -3.0718 C.2       1 <1>         0.0999
     19 C19         4.9447    0.9963   -1.3871 C.ar      1 <1>         0.0546
     20 C20         4.9481    3.6609   -4.1538 C.2       1 <1>         0.0901
     21 C21        -3.3723    2.5035    0.2262 C.3       1 <1>         0.0252
     22 N1          5.4022   -0.0095   -0.6122 N.ar      1 <1>        -0.3504
     23 N2          2.4714    3.4203   -2.4475 N.pl3     1 <1>        -0.3971
     24 N3          6.1879    3.5890   -4.8084 N.am      1 <1>        -0.3425
     25 O1          4.1115    4.5209   -4.5282 O.2       1 <1>        -0.4917
     26 O2         -2.2539    3.3769    0.3750 O.3       1 <1>        -0.4156
     27 S1          5.9109    1.6483   -2.6318 S.3       1 <1>        -0.0476
     28 H1          6.3068   -4.3819    3.3977 H         1 <1>         0.1216
     29 H2          4.6908   -2.7360    4.3112 H         1 <1>         0.1197
     30 H3          7.0918   -4.1791    1.0520 H         1 <1>         0.1199
     31 H4          3.8583   -0.8955    2.8951 H         1 <1>         0.1291
     32 H5          6.2697   -2.3439   -0.3778 H         1 <1>         0.1406
     33 H6          0.4679   -0.1405   -0.4832 H         1 <1>         0.1420
     34 H7          2.2626    3.7087    0.2837 H         1 <1>         0.1369
     35 H8         -1.7671    0.8494   -0.1885 H         1 <1>         0.1334
     36 H9          0.0229    4.6883    0.5763 H         1 <1>         0.1162
     37 H10         2.6124   -0.2859    1.3153 H         1 <1>         0.1460
     38 H11        -4.2970    3.0649    0.3805 H         1 <1>         0.0904
     39 H12        -3.3008    1.6913    0.9539 H         1 <1>         0.0907
     40 H13        -3.3661    2.0869   -0.7838 H         1 <1>         0.1235
     41 H14         1.6227    3.2869   -1.8842 H         1 <1>         0.2657
     42 H15         2.4079    4.1133   -3.2031 H         1 <1>         0.2758
     43 H16         6.8665    2.9031   -4.4959 H         1 <1>         0.2783
     44 H17         6.4295    4.1986   -5.5829 H         1 <1>         0.2726
@<TRIPOS>BOND
     1    1    2 ar
     2    1    3 ar
     3    2    4 ar
     4    3    5 ar
     5    4   13 ar
     6    5   13 ar
     7    6    8 ar
     8    6   12 ar
     9    7    9 ar
    10    7   12 ar
    11    8   16 ar
    12    9   16 ar
    13   10   14 ar
    14   10   17 ar
    15   11   14 ar
    16   11   15 1
    17   11   19 ar
    18   12   14 1
    19   13   17 1
    20   15   18 2
    21   15   23 1
    22   16   26 1
    23   17   22 ar
    24   18   20 1
    25   18   27 1
    26   19   22 ar
    27   19   27 1
    28   20   24 am
    29   20   25 2
    30   21   26 1
    31    1   28 1
    32    2   29 1
    33    3   30 1
    34    4   31 1
    35    5   32 1
    36    6   33 1
    37    7   34 1
    38    8   35 1
    39    9   36 1
    40   10   37 1
    41   21   38 1
    42   21   39 1
    43   21   40 1
    44   23   41 1
    45   23   42 1
    46   24   43 1
    47   24   44 1
@<TRIPOS>Similarity
1.5713
@<TRIPOS>ShapeSim
0.9300
@<TRIPOS>PharmSim
0.6413
# END
# Name:		AG-690/11481224
# Created and modified by SHAFTS on Thu Jun  3 03:39:13 2010

# 

@<TRIPOS>MOLECULE
AG-690/11481224
   42    44     0
SMALL
USER_CHARGE


@<TRIPOS>ATOM
      1 C1          3.0646    2.8384   -2.1915 C.1       1 <1>         0.0803
      2 C2          5.9483   -3.4152    2.6018 C.ar      1 <1>        -0.1027
      3 C3          5.5726   -2.2150    3.2053 C.ar      1 <1>        -0.0986
      4 C4          5.8083   -3.5766    1.2234 C.ar      1 <1>        -0.0963
      5 C5          5.0568   -1.1762    2.4303 C.ar      1 <1>        -0.0782
      6 C6          5.2925   -2.5378    0.4485 C.ar      1 <1>        -0.0739
      7 C7          0.2224    0.9689   -0.2099 C.ar      1 <1>        -0.0740
      8 C8          1.1691    3.1479    0.2291 C.ar      1 <1>        -0.0727
      9 C9         -1.0565    1.4800    0.0112 C.ar      1 <1>        -0.0738
     10 C10        -0.1098    3.6590    0.4501 C.ar      1 <1>        -0.0736
     11 C11         3.1110    0.2364    0.4804 C.ar      1 <1>        -0.0199
     12 C12         3.4862    1.7716   -1.3326 C.ar      1 <1>         0.1494
     13 C13         1.3353    1.8029   -0.1009 C.ar      1 <1>        -0.0498
     14 C14         4.9167   -1.3376    1.0519 C.ar      1 <1>        -0.0298
     15 C15         2.6616    1.2727   -0.3304 C.ar      1 <1>        -0.0013
     16 C16        -1.2226    2.8249    0.3412 C.ar      1 <1>        -0.0364
     17 C17         4.3831   -0.2623    0.2501 C.ar      1 <1>        -0.0021
     18 C18         4.7416    1.2044   -1.4816 C.ar      1 <1>         0.1212
     19 C19         7.4509    1.3928   -4.6510 C.3       1 <1>        -0.0632
     20 C20         7.7582    2.1337   -3.3620 C.3       1 <1>        -0.0386
     21 C21         6.9855    1.5625   -2.1831 C.3       1 <1>         0.0321
     22 N1          2.7232    3.7024   -2.8870 N.1       1 <1>        -0.3655
     23 N2          5.2129    0.1967   -0.7135 N.ar      1 <1>        -0.3378
     24 O1          5.5931    1.6604   -2.4550 O.3       1 <1>        -0.3607
     25 Br1        -2.9551    3.5183    0.6400 Br        1 <1>        -0.1053
     26 H1          6.3515   -4.2232    3.2052 H         1 <1>         0.1221
     27 H2          5.6831   -2.0886    4.2783 H         1 <1>         0.1203
     28 H3          6.1020   -4.5103    0.7527 H         1 <1>         0.1192
     29 H4          4.7686   -0.2467    2.9155 H         1 <1>         0.1308
     30 H5          5.1897   -2.6779   -0.6250 H         1 <1>         0.1393
     31 H6          0.3358   -0.0818   -0.4665 H         1 <1>         0.1353
     32 H7          2.0265    3.8109    0.3170 H         1 <1>         0.1417
     33 H8         -1.9132    0.8168   -0.0784 H         1 <1>         0.1396
     34 H9         -0.2220    4.7091    0.7065 H         1 <1>         0.1402
     35 H10         2.4858   -0.1710    1.2704 H         1 <1>         0.1462
     36 H11         7.6832    0.3273   -4.5556 H         1 <1>         0.0350
     37 H12         6.3892    1.4878   -4.8996 H         1 <1>         0.0350
     38 H13         8.0326    1.7984   -5.4848 H         1 <1>         0.0398
     39 H14         7.5190    3.1976   -3.4781 H         1 <1>         0.0553
     40 H15         8.8339    2.0881   -3.1538 H         1 <1>         0.0553
     41 H16         7.2363    0.5088   -2.0248 H         1 <1>         0.1083
     42 H17         7.2016    2.1212   -1.2667 H         1 <1>         0.1083
@<TRIPOS>BOND
     1    1   12 1
     2    1   22 3
     3    2    3 ar
     4    2    4 ar
     5    3    5 ar
     6    4    6 ar
     7    5   14 ar
     8    6   14 ar
     9    7    9 ar
    10    7   13 ar
    11    8   10 ar
    12    8   13 ar
    13    9   16 ar
    14   10   16 ar
    15   11   15 ar
    16   11   17 ar
    17   12   15 ar
    18   12   18 ar
    19   13   15 1
    20   14   17 1
    21   16   25 1
    22   17   23 ar
    23   18   23 ar
    24   18   24 1
    25   19   20 1
    26   20   21 1
    27   21   24 1
    28    2   26 1
    29    3   27 1
    30    4   28 1
    31    5   29 1
    32    6   30 1
    33    7   31 1
    34    8   32 1
    35    9   33 1
    36   10   34 1
    37   11   35 1
    38   19   36 1
    39   19   37 1
    40   19   38 1
    41   20   39 1
    42   20   40 1
    43   21   41 1
    44   21   42 1
@<TRIPOS>Similarity
1.5708
@<TRIPOS>ShapeSim
0.9208
@<TRIPOS>PharmSim
0.6500
# END
# Name:		AG-205/32388062
# Created and modified by SHAFTS on Thu Jun  3 03:39:13 2010

# 

@<TRIPOS>MOLECULE
AG-205/32388062
   41    44     0
SMALL
USER_CHARGE


@<TRIPOS>ATOM
      1 C1          5.9790   -3.4217    2.5913 C.ar      1 <1>        -0.1051
      2 C2          7.3680    2.6035   -4.4620 C.ar      1 <1>        -0.1051
      3 C3          5.5979   -2.2265    3.2010 C.ar      1 <1>        -0.0983
      4 C4          5.8336   -3.5789    1.2129 C.ar      1 <1>        -0.1015
      5 C5          5.9894    2.6698   -4.6629 C.ar      1 <1>        -0.1015
      6 C6          7.8752    2.0774   -3.2738 C.ar      1 <1>        -0.0983
      7 C7          5.0713   -1.1884    2.4324 C.ar      1 <1>        -0.0764
      8 C8          5.3071   -2.5408    0.4443 C.ar      1 <1>        -0.0822
      9 C9          5.1177    2.2098   -3.6757 C.ar      1 <1>        -0.0822
     10 C10         7.0036    1.6174   -2.2866 C.ar      1 <1>        -0.0764
     11 C11         0.3034    0.9940    0.4001 C.ar      1 <1>        -0.0767
     12 C12         1.0707    3.1431   -0.3937 C.ar      1 <1>        -0.0767
     13 C13        -0.9712    1.5234    0.6016 C.ar      1 <1>        -0.0779
     14 C14        -0.2041    3.6725   -0.1922 C.ar      1 <1>        -0.0779
     15 C15         3.1067    0.2182    0.4973 C.ar      1 <1>        -0.0397
     16 C16         3.4639    1.7657   -1.3087 C.ar      1 <1>        -0.0397
     17 C17         1.3244    1.8038   -0.0975 C.ar      1 <1>        -0.0652
     18 C18         4.9259   -1.3455    1.0541 C.ar      1 <1>        -0.0381
     19 C19         5.6249    1.6837   -2.4875 C.ar      1 <1>        -0.0381
     20 C20         2.6468    1.2558   -0.3059 C.ar      1 <1>        -0.0574
     21 C21        -1.2249    2.8627    0.3053 C.ar      1 <1>        -0.0426
     22 C22         4.3810   -0.2707    0.2589 C.ar      1 <1>        -0.0118
     23 C23         4.7224    1.2077   -1.4662 C.ar      1 <1>        -0.0118
     24 N1          5.2036    0.1990   -0.7056 N.ar      1 <1>        -0.3713
     25 I1         -3.1239    3.6506    0.6045 I         1 <1>        -0.0999
     26 H1          6.3905   -4.2293    3.1897 H         1 <1>         0.1189
     27 H2          8.0465    2.9601   -5.2314 H         1 <1>         0.1188
     28 H3          5.7125   -2.1035    4.2740 H         1 <1>         0.1182
     29 H4          6.1315   -4.5087    0.7372 H         1 <1>         0.1182
     30 H5          5.5943    3.0778   -5.5886 H         1 <1>         0.1182
     31 H6          8.9486    2.0241   -3.1172 H         1 <1>         0.1182
     32 H7          4.7791   -0.2627    2.9226 H         1 <1>         0.1372
     33 H8          5.2002   -2.6775   -0.6292 H         1 <1>         0.1246
     34 H9          4.0455    2.2681   -3.8476 H         1 <1>         0.1246
     35 H10         7.4135    1.2093   -1.3658 H         1 <1>         0.1372
     36 H11         0.4863   -0.0517    0.6362 H         1 <1>         0.1348
     37 H12         1.8565    3.7870   -0.7812 H         1 <1>         0.1348
     38 H13        -1.7515    0.8747    0.9906 H         1 <1>         0.1359
     39 H14        -0.3802    4.7187   -0.4294 H         1 <1>         0.1359
     40 H15         2.4866   -0.1958    1.2879 H         1 <1>         0.1382
     41 H16         3.1253    2.5755   -1.9491 H         1 <1>         0.1382
@<TRIPOS>BOND
     1    1    3 ar
     2    1    4 ar
     3    2    5 ar
     4    2    6 ar
     5    3    7 ar
     6    4    8 ar
     7    5    9 ar
     8    6   10 ar
     9    7   18 ar
    10    8   18 ar
    11    9   19 ar
    12   10   19 ar
    13   11   13 ar
    14   11   17 ar
    15   12   14 ar
    16   12   17 ar
    17   13   21 ar
    18   14   21 ar
    19   15   20 ar
    20   15   22 ar
    21   16   20 ar
    22   16   23 ar
    23   17   20 1
    24   18   22 1
    25   19   23 1
    26   21   25 1
    27   22   24 ar
    28   23   24 ar
    29    1   26 1
    30    2   27 1
    31    3   28 1
    32    4   29 1
    33    5   30 1
    34    6   31 1
    35    7   32 1
    36    8   33 1
    37    9   34 1
    38   10   35 1
    39   11   36 1
    40   12   37 1
    41   13   38 1
    42   14   39 1
    43   15   40 1
    44   16   41 1
@<TRIPOS>Similarity
1.5705
@<TRIPOS>ShapeSim
0.8977
@<TRIPOS>PharmSim
0.6728
# END
# Name:		AK-777/36504058
# Created and modified by SHAFTS on Thu Jun  3 03:39:13 2010

# 

@<TRIPOS>MOLECULE
AK-777/36504058
   45    49     0
SMALL
USER_CHARGE


@<TRIPOS>ATOM
      1 C1          5.9421   -3.5736    2.7705 C.ar      1 <1>        -0.1025
      2 C2          5.5821   -2.3547    3.3451 C.ar      1 <1>        -0.0956
      3 C3          5.8348   -3.7533    1.3914 C.ar      1 <1>        -0.0988
      4 C4          5.1149   -1.3154    2.5406 C.ar      1 <1>        -0.0730
      5 C5          5.3674   -2.7140    0.5869 C.ar      1 <1>        -0.0786
      6 C6          1.3407    2.8012    0.7394 C.ar      1 <1>        -0.0749
      7 C7          0.4278    1.1903   -0.8125 C.ar      1 <1>        -0.0756
      8 C8          0.0732    3.3592    0.9059 C.ar      1 <1>        -0.0422
      9 C9         -0.8398    1.7482   -0.6461 C.ar      1 <1>        -0.0425
     10 C10         3.2578    0.1032    0.5318 C.ar      1 <1>        -0.0231
     11 C11         3.7010    1.6124   -1.2951 C.ar      1 <1>         0.0114
     12 C12         1.5179    1.7169   -0.1199 C.ar      1 <1>        -0.0604
     13 C13         5.0074   -1.4951    1.1615 C.ar      1 <1>        -0.0282
     14 C14         2.8303    1.1394   -0.2923 C.ar      1 <1>        -0.0408
     15 C15         3.5689    2.6400   -2.2833 C.2       1 <1>        -0.0472
     16 C16        -1.0171    2.8326    0.2133 C.ar      1 <1>         0.0662
     17 C17         4.5233   -0.4177    0.3281 C.ar      1 <1>         0.0046
     18 C18         4.6918    2.7633   -3.0717 C.2       1 <1>         0.0774
     19 C19         4.9446    0.9962   -1.3870 C.ar      1 <1>         0.0573
     20 C20         4.9483    3.6609   -4.1538 C.2       1 <1>         0.0684
     21 C21         6.4702    2.5827   -5.9626 C.3       1 <1>        -0.0526
     22 C22         6.3972    4.0486   -6.2753 C.3       1 <1>        -0.0529
     23 C23         6.2865    3.5779   -4.8547 C.3       1 <1>         0.0095
     24 N1          5.4022   -0.0095   -0.6122 N.ar      1 <1>        -0.3486
     25 N2          2.4715    3.4204   -2.4475 N.pl3     1 <1>        -0.3992
     26 O1          4.1637    4.5293   -4.5858 O.2       1 <1>        -0.4755
     27 F1         -2.2343    3.3684    0.3732 F         1 <1>        -0.2638
     28 S1          5.9110    1.6483   -2.6317 S.3       1 <1>        -0.0463
     29 H1          6.3075   -4.3821    3.3969 H         1 <1>         0.1225
     30 H2          5.6672   -2.2140    4.4187 H         1 <1>         0.1205
     31 H3          6.1162   -4.7018    0.9431 H         1 <1>         0.1200
     32 H4          4.8385   -0.3710    3.0037 H         1 <1>         0.1413
     33 H5          5.2898   -2.8686   -0.4866 H         1 <1>         0.1291
     34 H6          2.1806    3.2231    1.2864 H         1 <1>         0.1436
     35 H7          0.5497    0.3452   -1.4859 H         1 <1>         0.1430
     36 H8         -0.0652    4.2036    1.5747 H         1 <1>         0.1357
     37 H9         -1.6892    1.3388   -1.1849 H         1 <1>         0.1366
     38 H10         2.6123   -0.2859    1.3151 H         1 <1>         0.1468
     39 H11         5.6223    1.9668   -6.2363 H         1 <1>         0.0674
     40 H12         7.4309    2.0932   -6.0673 H         1 <1>         0.0665
     41 H13         7.3087    4.5410   -6.5917 H         1 <1>         0.0675
     42 H14         5.4995    4.4178   -6.7559 H         1 <1>         0.0655
     43 H15         7.1433    3.7559   -4.2138 H         1 <1>         0.0822
     44 H16         1.6228    3.2870   -1.8843 H         1 <1>         0.2650
     45 H17         2.4080    4.1134   -3.2032 H         1 <1>         0.2742
@<TRIPOS>BOND
     1    1    2 ar
     2    1    3 ar
     3    2    4 ar
     4    3    5 ar
     5    4   13 ar
     6    5   13 ar
     7    6    8 ar
     8    6   12 ar
     9    7    9 ar
    10    7   12 ar
    11    8   16 ar
    12    9   16 ar
    13   10   14 ar
    14   10   17 ar
    15   11   14 ar
    16   11   15 1
    17   11   19 ar
    18   12   14 1
    19   13   17 1
    20   15   18 2
    21   15   25 1
    22   16   27 1
    23   17   24 ar
    24   18   20 1
    25   18   28 1
    26   19   24 ar
    27   19   28 1
    28   20   23 1
    29   20   26 2
    30   21   22 1
    31   21   23 1
    32   22   23 1
    33    1   29 1
    34    2   30 1
    35    3   31 1
    36    4   32 1
    37    5   33 1
    38    6   34 1
    39    7   35 1
    40    8   36 1
    41    9   37 1
    42   10   38 1
    43   21   39 1
    44   21   40 1
    45   22   41 1
    46   22   42 1
    47   23   43 1
    48   25   44 1
    49   25   45 1
@<TRIPOS>Similarity
1.5704
@<TRIPOS>ShapeSim
0.8790
@<TRIPOS>PharmSim
0.6914
# END
# Name:		AE-842/31985041
# Created and modified by SHAFTS on Thu Jun  3 03:39:13 2010

# 

@<TRIPOS>MOLECULE
AE-842/31985041
   42    46     0
SMALL
USER_CHARGE


@<TRIPOS>ATOM
      1 C1         -1.3639    2.8687    0.2348 C.ar      1 <1>        -0.1026
      2 C2          5.9009   -3.4750    2.4534 C.ar      1 <1>        -0.1120
      3 C3         -0.2851    3.5508   -0.3277 C.ar      1 <1>        -0.0965
      4 C4         -1.1742    1.6067    0.7978 C.ar      1 <1>        -0.0973
      5 C5          5.7917   -3.3852    1.0658 C.ar      1 <1>        -0.1041
      6 C6          5.4609   -2.4234    3.2572 C.ar      1 <1>        -0.1023
      7 C7          0.9835    2.9709   -0.3272 C.ar      1 <1>        -0.0739
      8 C8          0.0943    1.0268    0.7983 C.ar      1 <1>        -0.0754
      9 C9          5.2425   -2.2437    0.4818 C.ar      1 <1>        -0.0635
     10 C10         4.9118   -1.2818    2.6733 C.ar      1 <1>        -0.0607
     11 C11         1.1733    1.7089    0.2358 C.ar      1 <1>        -0.0305
     12 C12         4.8026   -1.1920    1.2856 C.ar      1 <1>        -0.0349
     13 C13         2.4891    1.1074    0.2362 C.2       1 <1>         0.0063
     14 C14         4.9925    2.4379   -2.4362 C.3       1 <1>        -0.0665
     15 C15         6.0035    1.3803   -1.9101 C.3       1 <1>        -0.0628
     16 C16         4.1305    0.3552   -2.9646 C.3       1 <1>        -0.0569
     17 C17         3.5022    1.3877   -0.8358 C.3       1 <1>         0.0103
     18 C18         3.6452    1.6740   -2.3308 C.3       1 <1>        -0.0522
     19 C19         5.1760    0.0758   -1.8501 C.3       1 <1>        -0.0459
     20 C20         4.1582    0.0040   -0.7271 C.3       1 <1>        -0.0074
     21 N1          3.0094    0.3717    1.1920 N.2       1 <1>        -0.3290
     22 N2          4.2587   -0.0616    0.7079 N.pl3     1 <1>        -0.3401
     23 H1         -2.3516    3.3203    0.2343 H         1 <1>         0.1217
     24 H2          6.3288   -4.3640    2.9080 H         1 <1>         0.1019
     25 H3         -0.4330    4.5334   -0.7663 H         1 <1>         0.1200
     26 H4         -2.0141    1.0757    1.2360 H         1 <1>         0.1206
     27 H5          6.1343   -4.2039    0.4401 H         1 <1>         0.1217
     28 H6          5.5461   -2.4936    4.3378 H         1 <1>         0.1213
     29 H7          1.8172    3.5113   -0.7682 H         1 <1>         0.1347
     30 H8          0.2305    0.0429    1.2397 H         1 <1>         0.1316
     31 H9          5.1620   -2.1834   -0.6004 H         1 <1>         0.1155
     32 H10         4.5720   -0.4687    3.3097 H         1 <1>         0.1188
     33 H11         5.0200    3.3628   -1.8509 H         1 <1>         0.0504
     34 H12         5.2155    2.6967   -3.4784 H         1 <1>         0.0450
     35 H13         6.8369    1.2867   -2.6148 H         1 <1>         0.0464
     36 H14         6.4098    1.6479   -0.9295 H         1 <1>         0.0516
     37 H15         3.3386   -0.3979   -3.0443 H         1 <1>         0.0608
     38 H16         4.5850    0.4817   -3.9543 H         1 <1>         0.0538
     39 H17         4.0873    2.1669   -0.3121 H         1 <1>         0.0826
     40 H18         2.8032    2.1673   -2.8161 H         1 <1>         0.0887
     41 H19         5.7627   -0.8348   -1.9827 H         1 <1>         0.0821
     42 H20         3.4497   -0.8019   -0.9978 H         1 <1>         0.1283
@<TRIPOS>BOND
     1    1    3 ar
     2    1    4 ar
     3    2    5 ar
     4    2    6 ar
     5    3    7 ar
     6    4    8 ar
     7    5    9 ar
     8    6   10 ar
     9    7   11 ar
    10    8   11 ar
    11    9   12 ar
    12   10   12 ar
    13   11   13 1
    14   12   22 1
    15   13   17 1
    16   13   21 2
    17   14   15 1
    18   14   18 1
    19   15   19 1
    20   16   18 1
    21   16   19 1
    22   17   18 1
    23   17   20 1
    24   19   20 1
    25   20   22 1
    26   21   22 1
    27    1   23 1
    28    2   24 1
    29    3   25 1
    30    4   26 1
    31    5   27 1
    32    6   28 1
    33    7   29 1
    34    8   30 1
    35    9   31 1
    36   10   32 1
    37   14   33 1
    38   14   34 1
    39   15   35 1
    40   15   36 1
    41   16   37 1
    42   16   38 1
    43   17   39 1
    44   18   40 1
    45   19   41 1
    46   20   42 1
@<TRIPOS>Similarity
1.5688
@<TRIPOS>ShapeSim
0.9161
@<TRIPOS>PharmSim
0.6527
# END
# Name:		AG-690/40749446
# Created and modified by SHAFTS on Thu Jun  3 03:39:13 2010

# 

@<TRIPOS>MOLECULE
AG-690/40749446
   42    44     0
SMALL
USER_CHARGE


@<TRIPOS>ATOM
      1 C1          3.0418    2.8445   -2.1782 C.1       1 <1>         0.0761
      2 C2          5.9457   -3.4140    2.6033 C.ar      1 <1>        -0.1030
      3 C3          5.5700   -2.2133    3.2056 C.ar      1 <1>        -0.0990
      4 C4          5.8063   -3.5764    1.2250 C.ar      1 <1>        -0.0968
      5 C5          5.0548   -1.1750    2.4296 C.ar      1 <1>        -0.0792
      6 C6          5.2911   -2.5381    0.4490 C.ar      1 <1>        -0.0749
      7 C7          0.2240    0.9679   -0.2117 C.ar      1 <1>        -0.0756
      8 C8          1.1689    3.1468    0.2316 C.ar      1 <1>        -0.0742
      9 C9         -1.0552    1.4772    0.0118 C.ar      1 <1>        -0.0662
     10 C10        -0.1102    3.6561    0.4551 C.ar      1 <1>        -0.0660
     11 C11         3.1105    0.2370    0.4774 C.ar      1 <1>        -0.0187
     12 C12         3.4895    1.7735   -1.3337 C.ar      1 <1>         0.1157
     13 C13         1.3361    1.8027   -0.1017 C.ar      1 <1>        -0.0529
     14 C14         4.9154   -1.3374    1.0513 C.ar      1 <1>        -0.0320
     15 C15         2.6631    1.2743   -0.3331 C.ar      1 <1>        -0.0068
     16 C16        -1.2223    2.8213    0.3453 C.ar      1 <1>        -0.0111
     17 C17         4.3824   -0.2626    0.2485 C.ar      1 <1>        -0.0021
     18 C18         4.7446    1.2052   -1.4814 C.ar      1 <1>         0.0580
     19 C19         6.7105    3.0056   -0.4455 C.3       1 <1>        -0.0520
     20 C20         8.0851    1.0622   -1.2666 C.3       1 <1>        -0.0503
     21 C21         7.2597    2.2790   -1.6674 C.3       1 <1>        -0.0098
     22 N1          2.6798    3.7104   -2.8608 N.1       1 <1>        -0.3588
     23 N2          5.2140    0.1965   -0.7135 N.ar      1 <1>        -0.3580
     24 S1          5.8975    1.7661   -2.7339 S.3       1 <1>        -0.1256
     25 Cl1        -2.8009    3.4486    0.6225 Cl        1 <1>        -0.1373
     26 H1          6.3483   -4.2216    3.2075 H         1 <1>         0.1216
     27 H2          5.6800   -2.0860    4.2786 H         1 <1>         0.1200
     28 H3          6.0999   -4.5105    0.7551 H         1 <1>         0.1191
     29 H4          4.7667   -0.2449    2.9140 H         1 <1>         0.1295
     30 H5          5.1888   -2.6790   -0.6244 H         1 <1>         0.1387
     31 H6          0.3381   -0.0820   -0.4706 H         1 <1>         0.1352
     32 H7          2.0261    3.8101    0.3220 H         1 <1>         0.1417
     33 H8         -1.9130    0.8151   -0.0753 H         1 <1>         0.1380
     34 H9         -0.2255    4.7054    0.7154 H         1 <1>         0.1386
     35 H10         2.4846   -0.1707    1.2665 H         1 <1>         0.1505
     36 H11         6.0771    2.3335    0.1442 H         1 <1>         0.0385
     37 H12         7.5181    3.3505    0.2097 H         1 <1>         0.0424
     38 H13         6.1001    3.8719   -0.7250 H         1 <1>         0.0516
     39 H14         7.4728    0.3602   -0.6894 H         1 <1>         0.0445
     40 H15         8.9353    1.3468   -0.6369 H         1 <1>         0.0536
     41 H16         8.4690    0.5228   -2.1400 H         1 <1>         0.0444
     42 H17         7.8888    2.9669   -2.2422 H         1 <1>         0.0923
@<TRIPOS>BOND
     1    1   12 1
     2    1   22 3
     3    2    3 ar
     4    2    4 ar
     5    3    5 ar
     6    4    6 ar
     7    5   14 ar
     8    6   14 ar
     9    7    9 ar
    10    7   13 ar
    11    8   10 ar
    12    8   13 ar
    13    9   16 ar
    14   10   16 ar
    15   11   15 ar
    16   11   17 ar
    17   12   15 ar
    18   12   18 ar
    19   13   15 1
    20   14   17 1
    21   16   25 1
    22   17   23 ar
    23   18   23 ar
    24   18   24 1
    25   19   21 1
    26   20   21 1
    27   21   24 1
    28    2   26 1
    29    3   27 1
    30    4   28 1
    31    5   29 1
    32    6   30 1
    33    7   31 1
    34    8   32 1
    35    9   33 1
    36   10   34 1
    37   11   35 1
    38   19   36 1
    39   19   37 1
    40   19   38 1
    41   20   39 1
    42   20   40 1
    43   20   41 1
    44   21   42 1
@<TRIPOS>Similarity
1.5685
@<TRIPOS>ShapeSim
0.9156
@<TRIPOS>PharmSim
0.6529
# END
# Name:		AO-081/14337023
# Created and modified by SHAFTS on Thu Jun  3 03:39:13 2010

# 

@<TRIPOS>MOLECULE
AO-081/14337023
   42    45     0
SMALL
USER_CHARGE


@<TRIPOS>ATOM
      1 C1          1.6078    3.1266    0.2104 C.ar      1 <1>        -0.0747
      2 C2          0.7193    1.0670   -0.6874 C.ar      1 <1>        -0.0770
      3 C3          5.9912   -2.3667    0.6567 C.ar      1 <1>        -0.0485
      4 C4          4.4574   -1.7852    2.4304 C.ar      1 <1>        -0.0486
      5 C5          0.3137    3.6339    0.3274 C.ar      1 <1>        -0.0645
      6 C6         -0.5748    1.5743   -0.5704 C.ar      1 <1>        -0.0676
      7 C7          6.5862   -3.3194    1.4835 C.ar      1 <1>        -0.0644
      8 C8          5.0524   -2.7380    3.2574 C.ar      1 <1>        -0.0645
      9 C9          1.8106    1.8432   -0.2970 C.ar      1 <1>        -0.0590
     10 C10         4.9267   -1.5996    1.1301 C.ar      1 <1>        -0.0032
     11 C11        -0.7776    2.8578   -0.0630 C.ar      1 <1>        -0.0134
     12 C12         6.1169   -3.5051    2.7838 C.ar      1 <1>        -0.0309
     13 C13         4.2449   -0.7275   -1.1084 C.2       1 <1>         0.1571
     14 C14         3.7350    0.5585    0.7455 C.2       1 <1>         0.1665
     15 C15         3.6595    2.9086   -2.3985 C.2       1 <1>         0.1716
     16 C16         3.5385    0.4704   -1.6347 C.3       1 <1>         0.1248
     17 C17         4.1102    1.8502   -1.4769 C.3       1 <1>         0.1248
     18 C18         3.1928    1.3013   -0.4217 C.3       1 <1>         0.1274
     19 C19         3.5914    2.6414   -5.2316 C.3       1 <1>        -0.0323
     20 C20         4.3255    3.7479   -4.5047 C.3       1 <1>         0.0275
     21 N1          4.3147   -0.6205    0.2799 N.am      1 <1>        -0.2061
     22 O1          4.6093   -1.6103   -1.8673 O.2       1 <1>        -0.4206
     23 O2          3.6642    1.0335    1.8669 O.2       1 <1>        -0.4141
     24 O3          2.5232    3.3618   -2.4182 O.2       1 <1>        -0.4360
     25 O4          4.6949    3.2847   -3.2020 O.3       1 <1>        -0.3548
     26 Cl1        -2.3740    3.4839    0.0812 Cl        1 <1>        -0.1424
     27 Br1         6.9232   -4.7960    3.9041 Br        1 <1>        -0.1004
     28 H1          2.4516    3.7395    0.5162 H         1 <1>         0.1361
     29 H2          0.8669    0.0654   -1.0828 H         1 <1>         0.1412
     30 H3          6.3649   -2.2300   -0.3547 H         1 <1>         0.1463
     31 H4          3.6285   -1.1929    2.8095 H         1 <1>         0.1462
     32 H5          0.1708    4.6362    0.7230 H         1 <1>         0.1345
     33 H6         -1.4158    0.9579   -0.8773 H         1 <1>         0.1341
     34 H7          7.4145   -3.9092    1.0998 H         1 <1>         0.1469
     35 H8          4.6752   -2.8706    4.2680 H         1 <1>         0.1469
     36 H9          2.7777    0.2982   -2.3867 H         1 <1>         0.1595
     37 H10         5.1639    1.9222   -1.2239 H         1 <1>         0.1599
     38 H11         4.2271    1.7585   -5.3425 H         1 <1>         0.0605
     39 H12         2.6843    2.3578   -4.6878 H         1 <1>         0.0495
     40 H13         3.2752    2.9760   -6.2252 H         1 <1>         0.0498
     41 H14         3.6841    4.6277   -4.3972 H         1 <1>         0.1058
     42 H15         5.2319    4.0294   -5.0489 H         1 <1>         0.1058
@<TRIPOS>BOND
     1    1    5 ar
     2    1    9 ar
     3    2    6 ar
     4    2    9 ar
     5    3    7 ar
     6    3   10 ar
     7    4    8 ar
     8    4   10 ar
     9    5   11 ar
    10    6   11 ar
    11    7   12 ar
    12    8   12 ar
    13    9   18 1
    14   10   21 1
    15   11   26 1
    16   12   27 1
    17   13   16 1
    18   13   21 am
    19   13   22 2
    20   14   18 1
    21   14   21 am
    22   14   23 2
    23   15   17 1
    24   15   24 2
    25   15   25 1
    26   16   17 1
    27   16   18 1
    28   17   18 1
    29   19   20 1
    30   20   25 1
    31    1   28 1
    32    2   29 1
    33    3   30 1
    34    4   31 1
    35    5   32 1
    36    6   33 1
    37    7   34 1
    38    8   35 1
    39   16   36 1
    40   17   37 1
    41   19   38 1
    42   19   39 1
    43   19   40 1
    44   20   41 1
    45   20   42 1
@<TRIPOS>Similarity
1.5678
@<TRIPOS>ShapeSim
0.8360
@<TRIPOS>PharmSim
0.7318
# END
# Name:		AO-476/43249983
# Created and modified by SHAFTS on Thu Jun  3 03:39:13 2010

# 

@<TRIPOS>MOLECULE
AO-476/43249983
   44    48     0
SMALL
USER_CHARGE


@<TRIPOS>ATOM
      1 C1          0.3952   -0.7429    3.2658 C.ar      1 <1>        -0.0985
      2 C2         -1.5198    2.5682    0.7696 C.ar      1 <1>        -0.1014
      3 C3          5.9605   -3.4338    2.6154 C.ar      1 <1>        -0.0946
      4 C4          0.9066    0.5540    3.2213 C.ar      1 <1>        -0.0922
      5 C5          0.8343   -1.6976    2.3484 C.ar      1 <1>        -0.0960
      6 C6         -1.1491    1.3748    0.1498 C.ar      1 <1>        -0.0962
      7 C7         -0.6393    3.6500    0.7828 C.ar      1 <1>        -0.0948
      8 C8          5.6150   -2.2140    3.1972 C.ar      1 <1>        -0.0869
      9 C9          5.8199   -3.6148    1.2396 C.ar      1 <1>        -0.0859
     10 C10         1.8571    0.8963    2.2595 C.ar      1 <1>        -0.0743
     11 C11         1.7847   -1.3553    1.3866 C.ar      1 <1>        -0.0791
     12 C12         0.1020    1.2632   -0.4568 C.ar      1 <1>        -0.0719
     13 C13         0.6119    3.5384    0.1763 C.ar      1 <1>        -0.0713
     14 C14         5.1288   -1.1754    2.4032 C.ar      1 <1>        -0.0511
     15 C15         5.3336   -2.5761    0.4455 C.ar      1 <1>        -0.0492
     16 C16         2.2961   -0.0583    1.3421 C.ar      1 <1>        -0.0351
     17 C17         0.9825    2.3450   -0.4435 C.ar      1 <1>        -0.0150
     18 C18         3.2561    1.2390   -0.6501 C.2       1 <1>         0.0552
     19 C19         4.9881   -1.3565    1.0273 C.ar      1 <1>         0.0101
     20 C20         3.2823    0.2966    0.3454 C.2       1 <1>         0.0293
     21 C21         4.5038    1.1315   -1.2788 C.2       1 <1>         0.1366
     22 C22         2.3063    2.2269   -1.0851 C.2       1 <1>         0.0476
     23 C23         4.8613    2.0060   -2.3621 C.2       1 <1>         0.1819
     24 N1          5.2746    0.1774   -0.7552 N.2       1 <1>        -0.2621
     25 N2          2.6329    3.0367   -2.0534 N.2       1 <1>        -0.2986
     26 N3          4.5014   -0.3160    0.2329 N.pl3     1 <1>        -0.2507
     27 N4          3.8628    2.9275   -2.6673 N.am      1 <1>        -0.2281
     28 O1          5.9383    1.9438   -2.9465 O.2       1 <1>        -0.4467
     29 H1         -0.3443   -1.0097    4.0152 H         1 <1>         0.1237
     30 H2         -2.4939    2.6551    1.2418 H         1 <1>         0.1205
     31 H3          6.3407   -4.2421    3.2330 H         1 <1>         0.1288
     32 H4          0.5644    1.2973    3.9355 H         1 <1>         0.1243
     33 H5          0.4370   -2.7079    2.3838 H         1 <1>         0.1219
     34 H6         -1.8348    0.5326    0.1397 H         1 <1>         0.1194
     35 H7         -0.9280    4.5792    1.2651 H         1 <1>         0.1196
     36 H8          5.7256   -2.0723    4.2684 H         1 <1>         0.1324
     37 H9          6.0905   -4.5645    0.7870 H         1 <1>         0.1324
     38 H10         2.2479    1.9108    2.2395 H         1 <1>         0.1319
     39 H11         2.1160   -2.1105    0.6780 H         1 <1>         0.1244
     40 H12         0.3806    0.3287   -0.9369 H         1 <1>         0.1327
     41 H13         1.2899    4.3878    0.1929 H         1 <1>         0.1290
     42 H14         4.8639   -0.2294    2.8693 H         1 <1>         0.1398
     43 H15         5.2298   -2.7306   -0.6259 H         1 <1>         0.1440
     44 H16         4.0599    3.5841   -3.4161 H         1 <1>         0.3943
@<TRIPOS>BOND
     1    1    4 ar
     2    1    5 ar
     3    2    6 ar
     4    2    7 ar
     5    3    8 ar
     6    3    9 ar
     7    4   10 ar
     8    5   11 ar
     9    6   12 ar
    10    7   13 ar
    11    8   14 ar
    12    9   15 ar
    13   10   16 ar
    14   11   16 ar
    15   12   17 ar
    16   13   17 ar
    17   14   19 ar
    18   15   19 ar
    19   16   20 1
    20   17   22 1
    21   18   20 2
    22   18   21 1
    23   18   22 1
    24   19   26 1
    25   20   26 1
    26   21   23 1
    27   21   24 2
    28   22   25 2
    29   23   27 am
    30   23   28 2
    31   24   26 1
    32   25   27 1
    33    1   29 1
    34    2   30 1
    35    3   31 1
    36    4   32 1
    37    5   33 1
    38    6   34 1
    39    7   35 1
    40    8   36 1
    41    9   37 1
    42   10   38 1
    43   11   39 1
    44   12   40 1
    45   13   41 1
    46   14   42 1
    47   15   43 1
    48   27   44 1
@<TRIPOS>Similarity
1.5667
@<TRIPOS>ShapeSim
0.8498
@<TRIPOS>PharmSim
0.7170
# END
# Name:		AE-842/31985041
# Created and modified by SHAFTS on Thu Jun  3 03:39:13 2010

# 

@<TRIPOS>MOLECULE
AE-842/31985041
   42    46     0
SMALL
USER_CHARGE


@<TRIPOS>ATOM
      1 C1         -1.4059    2.8265    0.2296 C.ar      1 <1>        -0.1032
      2 C2          5.8355   -3.5289    2.4762 C.ar      1 <1>        -0.1083
      3 C3         -0.3098    3.5641   -0.2174 C.ar      1 <1>        -0.0971
      4 C4         -1.2234    1.5333    0.7196 C.ar      1 <1>        -0.0976
      5 C5          5.8113   -3.3471    1.0935 C.ar      1 <1>        -0.0991
      6 C6          5.3272   -2.5400    3.3186 C.ar      1 <1>        -0.0988
      7 C7          0.9691    3.0087   -0.1744 C.ar      1 <1>        -0.0745
      8 C8          0.0553    0.9778    0.7627 C.ar      1 <1>        -0.0757
      9 C9          5.2790   -2.1766    0.5532 C.ar      1 <1>        -0.0596
     10 C10         4.7949   -1.3695    2.7783 C.ar      1 <1>        -0.0592
     11 C11         1.1516    1.7155    0.3158 C.ar      1 <1>        -0.0311
     12 C12         4.7707   -1.1877    1.3955 C.ar      1 <1>        -0.0336
     13 C13         2.4775    1.1396    0.3604 C.2       1 <1>         0.0082
     14 C14         3.5790    0.8467   -3.1137 C.3       1 <1>        -0.0653
     15 C15         4.7495   -0.1573   -2.9172 C.3       1 <1>        -0.0629
     16 C16         5.3869    1.8322   -1.9180 C.3       1 <1>        -0.0574
     17 C17         3.5503    1.5069   -0.6223 C.3       1 <1>         0.0104
     18 C18         3.8431    1.9327   -2.0466 C.3       1 <1>        -0.0523
     19 C19         5.3696    0.3281   -1.5790 C.3       1 <1>        -0.0461
     20 C20         4.2314    0.1324   -0.5726 C.3       1 <1>        -0.0105
     21 N1          2.9601    0.3559    1.2982 N.2       1 <1>        -0.3298
     22 N2          4.2435   -0.0286    0.8609 N.pl3     1 <1>        -0.3443
     23 H1         -2.4015    3.2590    0.1959 H         1 <1>         0.1208
     24 H2          6.2502   -4.4404    2.8969 H         1 <1>         0.1088
     25 H3         -0.4521    4.5709   -0.5992 H         1 <1>         0.1195
     26 H4         -2.0768    0.9590    1.0679 H         1 <1>         0.1200
     27 H5          6.2071   -4.1169    0.4379 H         1 <1>         0.1215
     28 H6          5.3461   -2.6818    4.3955 H         1 <1>         0.1207
     29 H7          1.8163    3.5924   -0.5251 H         1 <1>         0.1340
     30 H8          0.1857   -0.0307    1.1465 H         1 <1>         0.1310
     31 H9          5.2650   -2.0446   -0.5257 H         1 <1>         0.1198
     32 H10         4.4014   -0.6059    3.4445 H         1 <1>         0.1192
     33 H11         3.6218    1.2671   -4.1243 H         1 <1>         0.0531
     34 H12         2.6013    0.3731   -2.9779 H         1 <1>         0.0471
     35 H13         4.4015   -1.1950   -2.8890 H         1 <1>         0.0501
     36 H14         5.4709   -0.0699   -3.7386 H         1 <1>         0.0462
     37 H15         5.9096    2.0678   -2.8525 H         1 <1>         0.0528
     38 H16         5.8191    2.4447   -1.1193 H         1 <1>         0.0573
     39 H17         4.0840    2.2572   -0.0041 H         1 <1>         0.0825
     40 H18         3.4598    2.9207   -2.3074 H         1 <1>         0.0785
     41 H19         6.3263   -0.1335   -1.3339 H         1 <1>         0.0866
     42 H20         3.5656   -0.6663   -0.9440 H         1 <1>         0.1186
@<TRIPOS>BOND
     1    1    3 ar
     2    1    4 ar
     3    2    5 ar
     4    2    6 ar
     5    3    7 ar
     6    4    8 ar
     7    5    9 ar
     8    6   10 ar
     9    7   11 ar
    10    8   11 ar
    11    9   12 ar
    12   10   12 ar
    13   11   13 1
    14   12   22 1
    15   13   17 1
    16   13   21 2
    17   14   15 1
    18   14   18 1
    19   15   19 1
    20   16   18 1
    21   16   19 1
    22   17   18 1
    23   17   20 1
    24   19   20 1
    25   20   22 1
    26   21   22 1
    27    1   23 1
    28    2   24 1
    29    3   25 1
    30    4   26 1
    31    5   27 1
    32    6   28 1
    33    7   29 1
    34    8   30 1
    35    9   31 1
    36   10   32 1
    37   14   33 1
    38   14   34 1
    39   15   35 1
    40   15   36 1
    41   16   37 1
    42   16   38 1
    43   17   39 1
    44   18   40 1
    45   19   41 1
    46   20   42 1
@<TRIPOS>Similarity
1.5621
@<TRIPOS>ShapeSim
0.8971
@<TRIPOS>PharmSim
0.6650
# END
# Name:		AO-476/43250026
# Created and modified by SHAFTS on Thu Jun  3 03:39:13 2010

# 

@<TRIPOS>MOLECULE
AO-476/43250026
   40    43     0
SMALL
USER_CHARGE


@<TRIPOS>ATOM
      1 C1          1.5856    2.8996    0.5033 C.ar      1 <1>        -0.0855
      2 C2          0.6674    1.2892   -1.0460 C.ar      1 <1>        -0.0891
      3 C3          4.5141   -1.5298    2.4326 C.ar      1 <1>        -0.0650
      4 C4          5.9012   -2.4473    0.6800 C.ar      1 <1>        -0.0585
      5 C5          0.3222    3.4698    0.6594 C.ar      1 <1>        -0.0971
      6 C6         -0.5960    1.8593   -0.8899 C.ar      1 <1>        -0.0994
      7 C7          4.9013   -2.5664    3.2817 C.ar      1 <1>        -0.0422
      8 C8          6.2885   -3.4839    1.5292 C.ar      1 <1>        -0.0385
      9 C9          3.3734    0.1941    0.3724 C.ar      1 <1>        -0.0237
     10 C10         5.8417    2.3096   -3.2876 C.ar      1 <1>         0.0450
     11 C11         4.0218    1.5994   -1.4726 C.ar      1 <1>         0.0634
     12 C12         1.7582    1.8093   -0.3494 C.ar      1 <1>        -0.0668
     13 C13         5.0140   -1.4703    1.1317 C.ar      1 <1>        -0.0194
     14 C14         3.0745    1.2155   -0.5121 C.ar      1 <1>        -0.0338
     15 C15        -0.7686    2.9496   -0.0372 C.ar      1 <1>        -0.1157
     16 C16         5.7885   -3.5435    2.8301 C.ar      1 <1>         0.0658
     17 C17         4.6131   -0.3972    0.2528 C.ar      1 <1>         0.0106
     18 C18         5.2596    0.9481   -1.5279 C.ar      1 <1>         0.0565
     19 C19         3.7947    2.6168   -2.3961 C.ar      1 <1>         0.0071
     20 C20        -2.1193    3.5594    0.1294 C.3       1 <1>        -0.0413
     21 N1          6.1675    1.3100   -2.4413 N.ar      1 <1>        -0.3281
     22 N2          4.6913    2.9966   -3.3217 N.ar      1 <1>        -0.3418
     23 N3          5.5410   -0.0400   -0.6676 N.ar      1 <1>        -0.3292
     24 N4          2.5806    3.3372   -2.4262 N.pl3     1 <1>        -0.3661
     25 F1          6.1603   -4.5390    3.6456 F         1 <1>        -0.2646
     26 H1          2.4261    3.3169    1.0528 H         1 <1>         0.1325
     27 H2          0.7858    0.4392   -1.7140 H         1 <1>         0.1284
     28 H3          3.8217   -0.7758    2.7994 H         1 <1>         0.1443
     29 H4          6.2997   -2.4147   -0.3312 H         1 <1>         0.1583
     30 H5          0.1972    4.3197    1.3251 H         1 <1>         0.1203
     31 H6         -1.4404    1.4473   -1.4362 H         1 <1>         0.1210
     32 H7          4.5122   -2.6132    4.2946 H         1 <1>         0.1343
     33 H8          6.9792   -4.2449    1.1783 H         1 <1>         0.1351
     34 H9          2.6674   -0.1324    1.1308 H         1 <1>         0.1446
     35 H10         6.5925    2.5840   -4.0186 H         1 <1>         0.3084
     36 H11        -2.2724    4.3564   -0.6085 H         1 <1>         0.0593
     37 H12        -2.9127    2.8113    0.0031 H         1 <1>         0.0554
     38 H13        -2.2426    3.9864    1.1334 H         1 <1>         0.0555
     39 H14         1.8469    3.0802   -1.7986 H         1 <1>         0.2829
     40 H15         2.4423    4.0270   -3.1358 H         1 <1>         0.2771
@<TRIPOS>BOND
     1    1    5 ar
     2    1   12 ar
     3    2    6 ar
     4    2   12 ar
     5    3    7 ar
     6    3   13 ar
     7    4    8 ar
     8    4   13 ar
     9    5   15 ar
    10    6   15 ar
    11    7   16 ar
    12    8   16 ar
    13    9   14 ar
    14    9   17 ar
    15   10   21 ar
    16   10   22 ar
    17   11   14 ar
    18   11   18 ar
    19   11   19 ar
    20   12   14 1
    21   13   17 1
    22   15   20 1
    23   16   25 1
    24   17   23 ar
    25   18   21 ar
    26   18   23 ar
    27   19   22 ar
    28   19   24 1
    29    1   26 1
    30    2   27 1
    31    3   28 1
    32    4   29 1
    33    5   30 1
    34    6   31 1
    35    7   32 1
    36    8   33 1
    37    9   34 1
    38   10   35 1
    39   20   36 1
    40   20   37 1
    41   20   38 1
    42   24   39 1
    43   24   40 1
@<TRIPOS>Similarity
1.5608
@<TRIPOS>ShapeSim
0.9288
@<TRIPOS>PharmSim
0.6320
# END
# Name:		AS-938/12583062
# Created and modified by SHAFTS on Thu Jun  3 03:39:13 2010

# 

@<TRIPOS>MOLECULE
AS-938/12583062
   43    46     0
SMALL
USER_CHARGE


@<TRIPOS>ATOM
      1 C1          0.2023    1.2132   -0.4655 C.ar      1 <1>        -0.0671
      2 C2          0.7116    3.5019    0.1174 C.ar      1 <1>        -0.0693
      3 C3          4.8815   -2.4440    3.1559 C.ar      1 <1>        -0.0853
      4 C4          6.2651   -3.3170    1.3781 C.ar      1 <1>        -0.0887
      5 C5          4.4664   -1.4052    2.3227 C.ar      1 <1>        -0.0489
      6 C6          5.8499   -2.2782    0.5449 C.ar      1 <1>        -0.0550
      7 C7         -1.0507    1.3394    0.1341 C.ar      1 <1>        -0.0524
      8 C8         -0.5415    3.6281    0.7170 C.ar      1 <1>        -0.0605
      9 C9          3.3234    0.3387    0.2461 C.2       1 <1>         0.0113
     10 C10         3.3724    1.2717   -0.7486 C.ar      1 <1>         0.0247
     11 C11         1.0835    2.2945   -0.4738 C.ar      1 <1>        -0.0211
     12 C12         5.7810   -3.3998    2.6837 C.ar      1 <1>        -0.1088
     13 C13         4.6633    1.1555   -1.3809 C.ar      1 <1>         0.0479
     14 C14         4.9505   -1.3223    1.0173 C.ar      1 <1>        -0.0008
     15 C15        -1.4227    2.5468    0.7253 C.ar      1 <1>        -0.0112
     16 C16         2.3681    2.1654   -1.0885 C.ar      1 <1>         0.0353
     17 C17         5.0008    1.9981   -2.4500 C.ar      1 <1>         0.0399
     18 C18         6.2249   -4.5105    3.5744 C.3       1 <1>        -0.0402
     19 C19         6.2813    2.0005   -3.2006 C.3       1 <1>         0.0144
     20 C20        -3.4969    1.5250    1.2819 C.3       1 <1>         0.0248
     21 N1          5.3613    0.1788   -0.7764 N.2       1 <1>        -0.2980
     22 N2          2.7245    2.9675   -2.1270 N.ar      1 <1>        -0.2774
     23 N3          4.0227    2.8824   -2.7958 N.ar      1 <1>        -0.2753
     24 N4          4.5364   -0.2844    0.1843 N.pl3     1 <1>        -0.2730
     25 O1         -2.6455    2.6698    1.3098 O.3       1 <1>        -0.4160
     26 H1          0.4777    0.2657   -0.9223 H         1 <1>         0.1381
     27 H2          1.3872    4.3539    0.1191 H         1 <1>         0.1478
     28 H3          4.4996   -2.5013    4.1717 H         1 <1>         0.1335
     29 H4          6.9662   -4.0571    1.0017 H         1 <1>         0.1341
     30 H5          3.7655   -0.6661    2.7036 H         1 <1>         0.1475
     31 H6          6.2358   -2.2260   -0.4703 H         1 <1>         0.1348
     32 H7         -1.7331    0.4937    0.1373 H         1 <1>         0.1323
     33 H8         -0.8259    4.5711    1.1759 H         1 <1>         0.1175
     34 H9          2.5665    0.0650    0.9702 H         1 <1>         0.2377
     35 H10         5.5532   -5.3719    3.4746 H         1 <1>         0.0605
     36 H11         7.2448   -4.8344    3.3295 H         1 <1>         0.0567
     37 H12         6.2352   -4.1974    4.6267 H         1 <1>         0.0567
     38 H13         6.2303    1.3160   -4.0593 H         1 <1>         0.0846
     39 H14         6.5284    3.0043   -3.5775 H         1 <1>         0.0851
     40 H15         7.1244    1.6901   -2.5651 H         1 <1>         0.0803
     41 H16        -4.4400    1.7591    1.7817 H         1 <1>         0.1226
     42 H17        -3.0029    0.6901    1.7851 H         1 <1>         0.0903
     43 H18        -3.6956    1.2552    0.2419 H         1 <1>         0.0908
@<TRIPOS>BOND
     1    1    7 ar
     2    1   11 ar
     3    2    8 ar
     4    2   11 ar
     5    3    5 ar
     6    3   12 ar
     7    4    6 ar
     8    4   12 ar
     9    5   14 ar
    10    6   14 ar
    11    7   15 ar
    12    8   15 ar
    13    9   10 2
    14    9   24 1
    15   10   13 ar
    16   10   16 ar
    17   11   16 1
    18   12   18 1
    19   13   17 ar
    20   13   21 2
    21   14   24 1
    22   15   25 1
    23   16   22 ar
    24   17   19 1
    25   17   23 ar
    26   20   25 1
    27   21   24 1
    28   22   23 ar
    29    1   26 1
    30    2   27 1
    31    3   28 1
    32    4   29 1
    33    5   30 1
    34    6   31 1
    35    7   32 1
    36    8   33 1
    37    9   34 1
    38   18   35 1
    39   18   36 1
    40   18   37 1
    41   19   38 1
    42   19   39 1
    43   19   40 1
    44   20   41 1
    45   20   42 1
    46   20   43 1
@<TRIPOS>Similarity
1.5605
@<TRIPOS>ShapeSim
0.8937
@<TRIPOS>PharmSim
0.6668
# END
# Name:		AS-938/12583055
# Created and modified by SHAFTS on Thu Jun  3 03:39:13 2010

# 

@<TRIPOS>MOLECULE
AS-938/12583055
   40    43     0
SMALL
USER_CHARGE


@<TRIPOS>ATOM
      1 C1          0.2029    1.2160   -0.4613 C.ar      1 <1>        -0.0766
      2 C2          0.7147    3.5045    0.1198 C.ar      1 <1>        -0.0597
      3 C3          4.4679   -1.4035    2.3226 C.ar      1 <1>        -0.0374
      4 C4          5.8488   -2.2800    0.5444 C.ar      1 <1>        -0.0439
      5 C5         -1.0493    1.3434    0.1398 C.ar      1 <1>        -0.0649
      6 C6         -0.5375    3.6320    0.7209 C.ar      1 <1>        -0.0474
      7 C7          4.8824   -2.4420    3.1565 C.ar      1 <1>        -0.0539
      8 C8          6.2634   -3.3185    1.3783 C.ar      1 <1>        -0.0576
      9 C9          3.3242    0.3393    0.2467 C.2       1 <1>         0.0121
     10 C10         3.3728    1.2719   -0.7485 C.ar      1 <1>         0.0264
     11 C11         1.0850    2.2965   -0.4713 C.ar      1 <1>        -0.0209
     12 C12         4.6627    1.1543   -1.3824 C.ar      1 <1>         0.0496
     13 C13         4.9511   -1.3226    1.0166 C.ar      1 <1>         0.0062
     14 C14        -1.4195    2.5513    0.7309 C.ar      1 <1>        -0.0107
     15 C15         5.7801   -3.3995    2.6843 C.ar      1 <1>        -0.0048
     16 C16         2.3687    2.1662   -1.0876 C.ar      1 <1>         0.0366
     17 C17         4.9995    1.9961   -2.4523 C.ar      1 <1>         0.0412
     18 C18         6.2790    1.9972   -3.2045 C.3       1 <1>         0.0148
     19 C19        -3.4938    1.5315    1.2905 C.3       1 <1>         0.0249
     20 N1          5.3607    0.1774   -0.7783 N.2       1 <1>        -0.2970
     21 N2          2.7244    2.9675   -2.1269 N.ar      1 <1>        -0.2758
     22 N3          4.0217    2.8810   -2.7973 N.ar      1 <1>        -0.2737
     23 N4          4.5367   -0.2848    0.1837 N.pl3     1 <1>        -0.2709
     24 O1         -2.6415    2.6756    1.3168 O.3       1 <1>        -0.4155
     25 Cl1         6.2933   -4.6792    3.7142 Cl        1 <1>        -0.1330
     26 H1          0.4770    0.2680   -0.9180 H         1 <1>         0.1326
     27 H2          1.3910    4.3560    0.1202 H         1 <1>         0.1536
     28 H3          3.7679   -0.6639    2.7037 H         1 <1>         0.1583
     29 H4          6.2334   -2.2286   -0.4713 H         1 <1>         0.1448
     30 H5         -1.7323    0.4982    0.1442 H         1 <1>         0.1156
     31 H6         -0.8206    4.5755    1.1797 H         1 <1>         0.1348
     32 H7          4.4976   -2.4932    4.1718 H         1 <1>         0.1497
     33 H8          6.9630   -4.0579    0.9969 H         1 <1>         0.1497
     34 H9          2.5681    0.0666    0.9719 H         1 <1>         0.2386
     35 H10         6.2265    1.3124   -4.0628 H         1 <1>         0.0850
     36 H11         6.5265    3.0006   -3.5823 H         1 <1>         0.0857
     37 H12         7.1227    1.6864   -2.5700 H         1 <1>         0.0806
     38 H13        -4.4361    1.7665    1.7914 H         1 <1>         0.0902
     39 H14        -2.9998    0.6963    1.7935 H         1 <1>         0.0898
     40 H15        -3.6940    1.2612    0.2509 H         1 <1>         0.1228
@<TRIPOS>BOND
     1    1    5 ar
     2    1   11 ar
     3    2    6 ar
     4    2   11 ar
     5    3    7 ar
     6    3   13 ar
     7    4    8 ar
     8    4   13 ar
     9    5   14 ar
    10    6   14 ar
    11    7   15 ar
    12    8   15 ar
    13    9   10 2
    14    9   23 1
    15   10   12 ar
    16   10   16 ar
    17   11   16 1
    18   12   17 ar
    19   12   20 2
    20   13   23 1
    21   14   24 1
    22   15   25 1
    23   16   21 ar
    24   17   18 1
    25   17   22 ar
    26   19   24 1
    27   20   23 1
    28   21   22 ar
    29    1   26 1
    30    2   27 1
    31    3   28 1
    32    4   29 1
    33    5   30 1
    34    6   31 1
    35    7   32 1
    36    8   33 1
    37    9   34 1
    38   18   35 1
    39   18   36 1
    40   18   37 1
    41   19   38 1
    42   19   39 1
    43   19   40 1
@<TRIPOS>Similarity
1.5597
@<TRIPOS>ShapeSim
0.8929
@<TRIPOS>PharmSim
0.6668
# END
# Name:		AG-205/36992071
# Created and modified by SHAFTS on Thu Jun  3 03:39:13 2010

# 

@<TRIPOS>MOLECULE
AG-205/36992071
   42    45     0
SMALL
USER_CHARGE


@<TRIPOS>ATOM
      1 C1          5.3330   -2.9389    3.0632 C.2       1 <1>        -0.1007
      2 C2          0.4641    0.9486   -0.3223 C.ar      1 <1>        -0.0758
      3 C3          1.4989    3.0914    0.0957 C.ar      1 <1>        -0.0765
      4 C4         -0.7962    1.5331   -0.1989 C.ar      1 <1>        -0.0665
      5 C5          0.2385    3.6760    0.2191 C.ar      1 <1>        -0.0667
      6 C6          4.6692   -1.7837    2.5581 C.2       1 <1>        -0.0813
      7 C7          3.3018    0.0935    0.5514 C.ar      1 <1>        -0.0155
      8 C8          6.1553   -3.5166    2.1211 C.2       1 <1>        -0.0419
      9 C9          3.8224    1.5603   -1.2897 C.ar      1 <1>         0.0177
     10 C10         1.6118    1.7276   -0.1750 C.ar      1 <1>        -0.0588
     11 C11         2.9166    1.1224   -0.3022 C.ar      1 <1>        -0.0356
     12 C12         3.7366    2.5719   -2.2993 C.2       1 <1>        -0.0325
     13 C13        -0.9091    2.8969    0.0718 C.ar      1 <1>        -0.0114
     14 C14         4.5619   -0.4549    0.3908 C.ar      1 <1>         0.0169
     15 C15         5.0098   -1.5224    1.2490 C.2       1 <1>         0.0182
     16 C16         4.8821    2.6593   -3.0594 C.2       1 <1>         0.1306
     17 C17         5.0559    0.9190   -1.3374 C.ar      1 <1>         0.0683
     18 C18         5.1843    3.5321   -4.1502 C.2       1 <1>         0.1884
     19 C19         3.0992    3.8484   -6.5336 C.3       1 <1>        -0.0331
     20 C20         3.9998    4.8204   -5.8015 C.3       1 <1>         0.0277
     21 N1          5.4731   -0.0809   -0.5328 N.ar      1 <1>        -0.3391
     22 N2          2.6592    3.3697   -2.5064 N.pl3     1 <1>        -0.3966
     23 O1          6.2598    3.5455   -4.7920 O.2       1 <1>        -0.4533
     24 O2          4.1464    4.3889   -4.4444 O.3       1 <1>        -0.3479
     25 S1          6.1251   -2.6672    0.6344 S.3       1 <1>        -0.1148
     26 S2          6.0672    1.5295   -2.5671 S.3       1 <1>        -0.0212
     27 Cl1        -2.4646    3.6171    0.2255 Cl        1 <1>        -0.1356
     28 H1          5.2142   -3.3264    4.0666 H         1 <1>         0.1180
     29 H2          0.5357   -0.1157   -0.5333 H         1 <1>         0.1415
     30 H3          2.3842    3.7118    0.2142 H         1 <1>         0.1407
     31 H4         -1.6824    0.9139   -0.3142 H         1 <1>         0.1377
     32 H5          0.1656    4.7396    0.4315 H         1 <1>         0.1387
     33 H6          3.9789   -1.1792    3.1334 H         1 <1>         0.1387
     34 H7          2.6283   -0.2686    1.3240 H         1 <1>         0.1485
     35 H8          6.7727   -4.3965    2.2348 H         1 <1>         0.1741
     36 H9          3.5277    2.8423   -6.5317 H         1 <1>         0.0489
     37 H10         2.1097    3.8122   -6.0663 H         1 <1>         0.0489
     38 H11         2.9500    4.1669   -7.5706 H         1 <1>         0.0583
     39 H12         3.5655    5.8247   -5.8071 H         1 <1>         0.1008
     40 H13         4.9883    4.8548   -6.2691 H         1 <1>         0.1008
     41 H14         1.7936    3.2627   -1.9636 H         1 <1>         0.2752
     42 H15         2.6289    4.0499   -3.2756 H         1 <1>         0.2661
@<TRIPOS>BOND
     1    1    6 1
     2    1    8 2
     3    2    4 ar
     4    2   10 ar
     5    3    5 ar
     6    3   10 ar
     7    4   13 ar
     8    5   13 ar
     9    6   15 2
    10    7   11 ar
    11    7   14 ar
    12    8   25 1
    13    9   11 ar
    14    9   12 1
    15    9   17 ar
    16   10   11 1
    17   12   16 2
    18   12   22 1
    19   13   27 1
    20   14   15 1
    21   14   21 ar
    22   15   25 1
    23   16   18 1
    24   16   26 1
    25   17   21 ar
    26   17   26 1
    27   18   23 2
    28   18   24 1
    29   19   20 1
    30   20   24 1
    31    1   28 1
    32    2   29 1
    33    3   30 1
    34    4   31 1
    35    5   32 1
    36    6   33 1
    37    7   34 1
    38    8   35 1
    39   19   36 1
    40   19   37 1
    41   19   38 1
    42   20   39 1
    43   20   40 1
    44   22   41 1
    45   22   42 1
@<TRIPOS>Similarity
1.5592
@<TRIPOS>ShapeSim
0.9107
@<TRIPOS>PharmSim
0.6485
# END
# Name:		AG-690/40750128
# Created and modified by SHAFTS on Thu Jun  3 03:39:13 2010

# 

@<TRIPOS>MOLECULE
AG-690/40750128
   39    41     0
SMALL
USER_CHARGE


@<TRIPOS>ATOM
      1 C1          3.1483    2.9055   -2.3057 C.1       1 <1>         0.0759
      2 C2          4.7331   -1.4340    2.2006 C.ar      1 <1>        -0.0736
      3 C3          6.0374   -2.1536    0.2985 C.ar      1 <1>        -0.0780
      4 C4          0.3804    0.9808   -0.3150 C.ar      1 <1>        -0.0742
      5 C5          1.3045    3.1681    0.1310 C.ar      1 <1>        -0.0756
      6 C6          5.2710   -2.4716    2.9620 C.ar      1 <1>        -0.0952
      7 C7          6.5754   -3.1912    1.0599 C.ar      1 <1>        -0.0975
      8 C8         -0.9018    1.4727   -0.0708 C.ar      1 <1>        -0.0660
      9 C9          0.0223    3.6600    0.3752 C.ar      1 <1>        -0.0662
     10 C10         3.2847    0.2808    0.3302 C.ar      1 <1>        -0.0185
     11 C11         3.6205    1.8343   -1.4748 C.ar      1 <1>         0.1148
     12 C12         1.4836    1.8285   -0.2140 C.ar      1 <1>        -0.0529
     13 C13         5.1163   -1.2751    0.8689 C.ar      1 <1>        -0.0314
     14 C14         2.8137    1.3181   -0.4669 C.ar      1 <1>        -0.0069
     15 C15         6.1921   -3.3502    2.3918 C.ar      1 <1>        -0.1147
     16 C16        -1.0808    2.8123    0.2743 C.ar      1 <1>        -0.0111
     17 C17         4.5594   -0.2014    0.0808 C.ar      1 <1>        -0.0031
     18 C18         4.8803    1.2826   -1.6433 C.ar      1 <1>         0.0551
     19 C19         6.7670   -4.4597    3.2057 C.3       1 <1>        -0.0414
     20 C20         5.0063    1.5336   -4.3699 C.3       1 <1>         0.0100
     21 N1          2.7666    3.7716   -2.9773 N.1       1 <1>        -0.3588
     22 N2          5.3723    0.2745   -0.8889 N.ar      1 <1>        -0.3602
     23 S1          6.0093    1.8662   -2.9071 S.3       1 <1>        -0.1276
     24 Cl1        -2.6631    3.4182    0.5770 Cl        1 <1>        -0.1373
     25 H1          4.0157   -0.7578    2.6593 H         1 <1>         0.1396
     26 H2          6.3466   -2.0425   -0.7381 H         1 <1>         0.1311
     27 H3          0.5039   -0.0658   -0.5828 H         1 <1>         0.1417
     28 H4          2.1546    3.8413    0.2146 H         1 <1>         0.1352
     29 H5          4.9659   -2.5885    3.9985 H         1 <1>         0.1199
     30 H6          7.2929   -3.8708    0.6077 H         1 <1>         0.1208
     31 H7         -1.7525    0.8006   -0.1512 H         1 <1>         0.1386
     32 H8         -0.1023    4.7059    0.6444 H         1 <1>         0.1381
     33 H9          2.6744   -0.1400    1.1248 H         1 <1>         0.1507
     34 H10         6.1450   -5.3589    3.1192 H         1 <1>         0.0590
     35 H11         7.7850   -4.7080    2.8784 H         1 <1>         0.0551
     36 H12         6.8332   -4.1829    4.2661 H         1 <1>         0.0550
     37 H13         5.5491    1.8352   -5.2692 H         1 <1>         0.0892
     38 H14         4.0704    2.0949   -4.3135 H         1 <1>         0.0800
     39 H15         4.7801    0.4664   -4.4300 H         1 <1>         0.0801
@<TRIPOS>BOND
     1    1   11 1
     2    1   21 3
     3    2    6 ar
     4    2   13 ar
     5    3    7 ar
     6    3   13 ar
     7    4    8 ar
     8    4   12 ar
     9    5    9 ar
    10    5   12 ar
    11    6   15 ar
    12    7   15 ar
    13    8   16 ar
    14    9   16 ar
    15   10   14 ar
    16   10   17 ar
    17   11   14 ar
    18   11   18 ar
    19   12   14 1
    20   13   17 1
    21   15   19 1
    22   16   24 1
    23   17   22 ar
    24   18   22 ar
    25   18   23 1
    26   20   23 1
    27    2   25 1
    28    3   26 1
    29    4   27 1
    30    5   28 1
    31    6   29 1
    32    7   30 1
    33    8   31 1
    34    9   32 1
    35   10   33 1
    36   19   34 1
    37   19   35 1
    38   19   36 1
    39   20   37 1
    40   20   38 1
    41   20   39 1
@<TRIPOS>Similarity
1.5585
@<TRIPOS>ShapeSim
0.9351
@<TRIPOS>PharmSim
0.6234
# END
# Name:		AE-641/00006013
# Created and modified by SHAFTS on Thu Jun  3 03:39:13 2010

# 

@<TRIPOS>MOLECULE
AE-641/00006013
   37    40     0
SMALL
USER_CHARGE


@<TRIPOS>ATOM
      1 C1         -1.2218    2.8024    0.3648 C.ar      1 <1>        -0.1049
      2 C2          5.9295   -3.4090    2.6066 C.ar      1 <1>        -0.1052
      3 C3          3.9446    3.3042   -3.1899 C.ar      1 <1>        -0.0969
      4 C4         -0.1251    3.3569    1.0247 C.ar      1 <1>        -0.1011
      5 C5         -1.0377    1.7467   -0.5282 C.ar      1 <1>        -0.1018
      6 C6          5.5547   -2.2075    3.2076 C.ar      1 <1>        -0.1014
      7 C7          5.7926   -3.5718    1.2280 C.ar      1 <1>        -0.0982
      8 C8          5.2049    2.7407   -3.3458 C.ar      1 <1>        -0.0872
      9 C9          3.0962    2.8256   -2.1956 C.ar      1 <1>        -0.0833
     10 C10         1.1556    2.8559    0.7915 C.ar      1 <1>        -0.0890
     11 C11         0.2430    1.2456   -0.7613 C.ar      1 <1>        -0.0897
     12 C12         5.0429   -1.1686    2.4302 C.ar      1 <1>        -0.0812
     13 C13         5.2809   -2.5329    0.4505 C.ar      1 <1>        -0.0755
     14 C14         5.6139    1.7005   -2.5076 C.ar      1 <1>        -0.0519
     15 C15         3.1099    0.2444    0.4723 C.ar      1 <1>        -0.0327
     16 C16         3.5078    1.7793   -1.3527 C.ar      1 <1>        -0.0361
     17 C17         1.3397    1.8002   -0.1014 C.ar      1 <1>        -0.0703
     18 C18         4.9060   -1.3313    1.0516 C.ar      1 <1>        -0.0348
     19 C19         2.6741    1.2783   -0.3438 C.ar      1 <1>        -0.0495
     20 C20         4.7861    1.2026   -1.5052 C.ar      1 <1>        -0.0189
     21 C21         4.3765   -0.2557    0.2473 C.ar      1 <1>        -0.0079
     22 N1          5.2118    0.1990   -0.7147 N.ar      1 <1>        -0.3745
     23 H1         -2.2191    3.1916    0.5477 H         1 <1>         0.1189
     24 H2          6.3295   -4.2172    3.2119 H         1 <1>         0.1190
     25 H3          3.6238    4.1128   -3.8396 H         1 <1>         0.1218
     26 H4         -0.2684    4.1778    1.7212 H         1 <1>         0.1197
     27 H5         -1.8913    1.3136   -1.0413 H         1 <1>         0.1194
     28 H6          5.6627   -2.0800    4.2808 H         1 <1>         0.1179
     29 H7          6.0855   -4.5066    0.7591 H         1 <1>         0.1180
     30 H8          5.8730    3.1083   -4.1193 H         1 <1>         0.1288
     31 H9          2.1170    3.2885   -2.1006 H         1 <1>         0.1299
     32 H10         2.0003    3.2987    1.3140 H         1 <1>         0.1248
     33 H11         0.3709    0.4220   -1.4596 H         1 <1>         0.1246
     34 H12         4.7554   -0.2378    2.9136 H         1 <1>         0.1261
     35 H13         5.1805   -2.6740   -0.6231 H         1 <1>         0.1384
     36 H14         6.6060    1.2762   -2.6506 H         1 <1>         0.1442
     37 H15         2.4799   -0.1591    1.2602 H         1 <1>         0.1403
@<TRIPOS>BOND
     1    1    4 ar
     2    1    5 ar
     3    2    6 ar
     4    2    7 ar
     5    3    8 ar
     6    3    9 ar
     7    4   10 ar
     8    5   11 ar
     9    6   12 ar
    10    7   13 ar
    11    8   14 ar
    12    9   16 ar
    13   10   17 ar
    14   11   17 ar
    15   12   18 ar
    16   13   18 ar
    17   14   20 ar
    18   15   19 ar
    19   15   21 ar
    20   16   19 ar
    21   16   20 ar
    22   17   19 1
    23   18   21 1
    24   20   22 ar
    25   21   22 ar
    26    1   23 1
    27    2   24 1
    28    3   25 1
    29    4   26 1
    30    5   27 1
    31    6   28 1
    32    7   29 1
    33    8   30 1
    34    9   31 1
    35   10   32 1
    36   11   33 1
    37   12   34 1
    38   13   35 1
    39   14   36 1
    40   15   37 1
@<TRIPOS>Similarity
1.5584
@<TRIPOS>ShapeSim
0.9352
@<TRIPOS>PharmSim
0.6232
# END
# Name:		AM-807/41930361
# Created and modified by SHAFTS on Thu Jun  3 03:39:13 2010

# 

@<TRIPOS>MOLECULE
AM-807/41930361
   40    44     0
SMALL
USER_CHARGE


@<TRIPOS>ATOM
      1 C1          5.9345   -3.5722    2.7730 C.ar      1 <1>        -0.1068
      2 C2          5.5761   -2.3522    3.3461 C.ar      1 <1>        -0.0988
      3 C3          5.8287   -3.7528    1.3939 C.ar      1 <1>        -0.1021
      4 C4          5.1117   -1.3127    2.5402 C.ar      1 <1>        -0.0737
      5 C5          5.3644   -2.7134    0.5879 C.ar      1 <1>        -0.0795
      6 C6          1.3418    2.7994    0.7411 C.ar      1 <1>        -0.0775
      7 C7          0.4297    1.1883   -0.8113 C.ar      1 <1>        -0.0772
      8 C8          0.0732    3.3538    0.9109 C.ar      1 <1>        -0.0658
      9 C9         -0.8389    1.7429   -0.6414 C.ar      1 <1>        -0.0670
     10 C10         3.2596    0.1070    0.5284 C.ar      1 <1>        -0.0297
     11 C11         3.7039    1.6152   -1.2995 C.ar      1 <1>         0.0071
     12 C12         1.5201    1.7165   -0.1200 C.ar      1 <1>        -0.0631
     13 C13         5.0059   -1.4933    1.1611 C.ar      1 <1>        -0.0317
     14 C14         2.8328    1.1431   -0.2963 C.ar      1 <1>        -0.0415
     15 C15         3.5974    2.6310   -2.2910 C.2       1 <1>        -0.0123
     16 C16        -1.0171    2.8257    0.2197 C.ar      1 <1>        -0.0112
     17 C17         4.5247   -0.4156    0.3261 C.ar      1 <1>        -0.0003
     18 C18         4.7219    2.7451   -3.0727 C.2       1 <1>         0.0770
     19 C19         4.9506    0.9953   -1.3903 C.ar      1 <1>         0.0598
     20 C20         3.6297    4.5803   -4.3336 C.2       1 <1>        -0.0010
     21 C21         4.8409    3.7086   -4.1438 C.2       1 <1>         0.0448
     22 C22         2.5447    4.4262   -3.5328 C.2       1 <1>        -0.0275
     23 N1          5.4051   -0.0104   -0.6137 N.ar      1 <1>        -0.3520
     24 N2          2.5439    3.4548   -2.5244 N.pl3     1 <1>        -0.3254
     25 O1          1.4505    5.0505   -3.5340 O.3       1 <1>        -0.5462
     26 O2          5.8182    3.8519   -4.8718 O.2       1 <1>        -0.5458
     27 S1          5.9287    1.6424   -2.6387 S.3       1 <1>        -0.0353
     28 Cl1        -2.5817    3.5115    0.4287 Cl        1 <1>        -0.1399
     29 H1          6.2978   -4.3808    3.4005 H         1 <1>         0.1160
     30 H2          5.6600   -2.2108    4.4197 H         1 <1>         0.1170
     31 H3          6.1091   -4.7021    0.9468 H         1 <1>         0.1162
     32 H4          4.8363   -0.3674    3.0021 H         1 <1>         0.1401
     33 H5          5.2879   -2.8687   -0.4855 H         1 <1>         0.1275
     34 H6          2.1819    3.2223    1.2868 H         1 <1>         0.1361
     35 H7          0.5527    0.3450   -1.4869 H         1 <1>         0.1383
     36 H8         -0.0512    4.1988    1.5838 H         1 <1>         0.1422
     37 H9         -1.6793    1.3219   -1.1874 H         1 <1>         0.1374
     38 H10         2.6140   -0.2811    1.3124 H         1 <1>         0.1420
     39 H11         3.6696    5.3203   -5.1267 H         1 <1>         0.0890
     40 H12         1.6860    3.4227   -1.9841 H         1 <1>         0.3203
@<TRIPOS>BOND
     1    1    2 ar
     2    1    3 ar
     3    2    4 ar
     4    3    5 ar
     5    4   13 ar
     6    5   13 ar
     7    6    8 ar
     8    6   12 ar
     9    7    9 ar
    10    7   12 ar
    11    8   16 ar
    12    9   16 ar
    13   10   14 ar
    14   10   17 ar
    15   11   14 ar
    16   11   15 1
    17   11   19 ar
    18   12   14 1
    19   13   17 1
    20   15   18 2
    21   15   24 1
    22   16   28 1
    23   17   23 ar
    24   18   21 1
    25   18   27 1
    26   19   23 ar
    27   19   27 1
    28   20   21 1
    29   20   22 2
    30   21   26 2
    31   22   24 1
    32   22   25 1
    33    1   29 1
    34    2   30 1
    35    3   31 1
    36    4   32 1
    37    5   33 1
    38    6   34 1
    39    7   35 1
    40    8   36 1
    41    9   37 1
    42   10   38 1
    43   20   39 1
    44   24   40 1
@<TRIPOS>Similarity
1.5580
@<TRIPOS>ShapeSim
0.8815
@<TRIPOS>PharmSim
0.6764
# END
# Name:		AM-807/14956052
# Created and modified by SHAFTS on Thu Jun  3 03:39:13 2010

# 

@<TRIPOS>MOLECULE
AM-807/14956052
   34    37     0
SMALL
USER_CHARGE


@<TRIPOS>ATOM
      1 C1          5.1027    3.5809   -4.1469 C.1       1 <1>         0.0785
      2 C2          5.6727   -2.7522    3.1045 C.2       1 <1>        -0.1011
      3 C3          1.4404    2.8336    0.6577 C.ar      1 <1>        -0.0764
      4 C4          0.5458    1.2037   -0.8852 C.ar      1 <1>        -0.0762
      5 C5          0.1766    3.4110    0.7806 C.ar      1 <1>        -0.0672
      6 C6         -0.7180    1.7812   -0.7623 C.ar      1 <1>        -0.0666
      7 C7          5.1911   -1.5010    2.6221 C.2       1 <1>        -0.0817
      8 C8          3.3254    0.1078    0.5527 C.ar      1 <1>        -0.0154
      9 C9          5.8735   -3.6569    2.0853 C.2       1 <1>        -0.0423
     10 C10         4.8878    2.6748   -3.0651 C.2       1 <1>         0.1472
     11 C11         3.8360    1.5735   -1.2921 C.ar      1 <1>         0.0192
     12 C12         1.6250    1.7299   -0.1753 C.ar      1 <1>        -0.0590
     13 C13         2.9336    1.1326   -0.3029 C.ar      1 <1>        -0.0344
     14 C14         3.7435    2.5824   -2.3038 C.2       1 <1>        -0.0253
     15 C15        -0.9026    2.8847    0.0706 C.ar      1 <1>        -0.0117
     16 C16         4.5885   -0.4336    0.3922 C.ar      1 <1>         0.0169
     17 C17         5.0424   -1.4970    1.2525 C.2       1 <1>         0.0174
     18 C18         5.0731    0.9393   -1.3394 C.ar      1 <1>         0.0739
     19 N1          5.2773    4.3175   -5.0265 N.1       1 <1>        -0.3646
     20 N2          5.4968   -0.0564   -0.5330 N.ar      1 <1>        -0.3383
     21 N3          2.6554    3.3697   -2.5042 N.pl3     1 <1>        -0.4029
     22 S1          5.4821   -2.9974    0.5542 S.3       1 <1>        -0.1154
     23 S2          6.0799    1.5530   -2.5714 S.3       1 <1>        -0.0039
     24 Cl1        -2.4614    3.5986    0.2216 Cl        1 <1>        -0.1360
     25 H1          5.8629   -2.9774    4.1456 H         1 <1>         0.1178
     26 H2          2.2718    3.2552    1.2174 H         1 <1>         0.1413
     27 H3          0.6739    0.3444   -1.5393 H         1 <1>         0.1410
     28 H4          0.0472    4.2719    1.4318 H         1 <1>         0.1374
     29 H5         -1.5498    1.3613   -1.3224 H         1 <1>         0.1388
     30 H6          4.9687   -0.6506    3.2549 H         1 <1>         0.1382
     31 H7          2.6551   -0.2569    1.3268 H         1 <1>         0.1495
     32 H8          6.2318   -4.6736    2.1665 H         1 <1>         0.1737
     33 H9          2.6495    4.1136   -3.2118 H         1 <1>         0.2637
     34 H10         1.8307    3.3166   -1.8951 H         1 <1>         0.2640
@<TRIPOS>BOND
     1    1   10 1
     2    1   19 3
     3    2    7 1
     4    2    9 2
     5    3    5 ar
     6    3   12 ar
     7    4    6 ar
     8    4   12 ar
     9    5   15 ar
    10    6   15 ar
    11    7   17 2
    12    8   13 ar
    13    8   16 ar
    14    9   22 1
    15   10   14 2
    16   10   23 1
    17   11   13 ar
    18   11   14 1
    19   11   18 ar
    20   12   13 1
    21   14   21 1
    22   15   24 1
    23   16   17 1
    24   16   20 ar
    25   17   22 1
    26   18   20 ar
    27   18   23 1
    28    2   25 1
    29    3   26 1
    30    4   27 1
    31    5   28 1
    32    6   29 1
    33    7   30 1
    34    8   31 1
    35    9   32 1
    36   21   33 1
    37   21   34 1
@<TRIPOS>Similarity
1.5579
@<TRIPOS>ShapeSim
0.9334
@<TRIPOS>PharmSim
0.6245
# END
# Name:		AK-087/42718333
# Created and modified by SHAFTS on Thu Jun  3 03:39:13 2010

# 

@<TRIPOS>MOLECULE
AK-087/42718333
   36    38     0
SMALL
USER_CHARGE


@<TRIPOS>ATOM
      1 C1          6.4898    1.5225   -1.7493 C.1       1 <1>         0.0326
      2 C2          1.1784    3.0667   -0.3761 C.ar      1 <1>        -0.0751
      3 C3          0.1697    1.0293    0.4412 C.ar      1 <1>        -0.0757
      4 C4         -0.0596    3.7060   -0.3109 C.ar      1 <1>        -0.0972
      5 C5         -1.0683    1.6684    0.5065 C.ar      1 <1>        -0.0973
      6 C6          5.1926   -2.4281    0.3972 C.ar      1 <1>        -0.0388
      7 C7          5.0119   -1.1836    2.4602 C.ar      1 <1>        -0.0458
      8 C8          5.8528   -3.4537    1.0738 C.ar      1 <1>        -0.0551
      9 C9          5.6721   -2.2092    3.1368 C.ar      1 <1>        -0.0592
     10 C10         3.6143    1.3514   -0.9661 C.2       1 <1>        -0.0338
     11 C11         1.2932    1.7284   -0.0001 C.ar      1 <1>        -0.0352
     12 C12        -1.1830    3.0068    0.1305 C.ar      1 <1>        -0.1160
     13 C13         4.7722   -1.2929    1.0904 C.ar      1 <1>        -0.0010
     14 C14         6.0925   -3.3444    2.4436 C.ar      1 <1>        -0.0068
     15 C15         2.5682    1.0711   -0.0667 C.2       1 <1>         0.0091
     16 C16         4.6055    0.4629   -0.6275 C.2       1 <1>        -0.0006
     17 C17        -2.5060    3.6914    0.2010 C.3       1 <1>        -0.0427
     18 C18         5.9506    0.2622   -1.2016 C.3       1 <1>         0.1205
     19 N1          6.9046    2.5179   -2.1780 N.1       1 <1>        -0.3852
     20 N2          2.8668    0.0818    0.7796 N.2       1 <1>        -0.3106
     21 N3          4.1119   -0.2673    0.4133 N.pl3     1 <1>        -0.2874
     22 Cl1         6.9048   -4.6110    3.2785 Cl        1 <1>        -0.1355
     23 H1          2.0444    3.6257   -0.7230 H         1 <1>         0.1327
     24 H2          0.2429   -0.0145    0.7379 H         1 <1>         0.1316
     25 H3         -0.1401    4.7491   -0.6050 H         1 <1>         0.1193
     26 H4         -1.9388    1.1167    0.8516 H         1 <1>         0.1204
     27 H5          5.0122   -2.5266   -0.6705 H         1 <1>         0.1529
     28 H6          4.6892   -0.3044    3.0126 H         1 <1>         0.1379
     29 H7          6.1755   -4.3324    0.5212 H         1 <1>         0.1469
     30 H8          5.8524   -2.1103    4.2042 H         1 <1>         0.1458
     31 H9          3.6487    2.0932   -1.7515 H         1 <1>         0.1386
     32 H10        -3.0454    3.5789   -0.7474 H         1 <1>         0.0577
     33 H11        -3.1270    3.2767    1.0057 H         1 <1>         0.0543
     34 H12        -2.3895    4.7629    0.4100 H         1 <1>         0.0541
     35 H13         5.9349   -0.4974   -2.0027 H         1 <1>         0.1653
     36 H14         6.6545   -0.1294   -0.4467 H         1 <1>         0.1792
@<TRIPOS>BOND
     1    1   18 1
     2    1   19 3
     3    2    4 ar
     4    2   11 ar
     5    3    5 ar
     6    3   11 ar
     7    4   12 ar
     8    5   12 ar
     9    6    8 ar
    10    6   13 ar
    11    7    9 ar
    12    7   13 ar
    13    8   14 ar
    14    9   14 ar
    15   10   15 1
    16   10   16 2
    17   11   15 1
    18   12   17 1
    19   13   21 1
    20   14   22 1
    21   15   20 2
    22   16   18 1
    23   16   21 1
    24   20   21 1
    25    2   23 1
    26    3   24 1
    27    4   25 1
    28    5   26 1
    29    6   27 1
    30    7   28 1
    31    8   29 1
    32    9   30 1
    33   10   31 1
    34   17   32 1
    35   17   33 1
    36   17   34 1
    37   18   35 1
    38   18   36 1
@<TRIPOS>Similarity
1.5572
@<TRIPOS>ShapeSim
0.9056
@<TRIPOS>PharmSim
0.6516
# END
# Name:		AB-321/43115455
# Created and modified by SHAFTS on Thu Jun  3 03:39:13 2010

# 

@<TRIPOS>MOLECULE
AB-321/43115455
   42    45     0
SMALL
USER_CHARGE


@<TRIPOS>ATOM
      1 C1         -1.2311    3.0863    0.0749 C.ar      1 <1>        -0.1065
      2 C2          6.2057   -3.3863    2.4195 C.ar      1 <1>        -0.0988
      3 C3          5.0732    2.1663   -2.6681 C.ar      1 <1>        -0.0958
      4 C4         -0.0518    3.8068    0.2640 C.ar      1 <1>        -0.1024
      5 C5         -1.1790    1.7122   -0.1593 C.ar      1 <1>        -0.0990
      6 C6          6.0508    1.2482   -2.2901 C.ar      1 <1>        -0.0924
      7 C7          5.9344   -3.4847    1.0547 C.ar      1 <1>        -0.0921
      8 C8          5.7800   -2.2680    3.1362 C.ar      1 <1>        -0.0888
      9 C9          3.8435    2.2185   -2.0016 C.ar      1 <1>        -0.0807
     10 C10         1.1796    3.1532    0.2189 C.ar      1 <1>        -0.0851
     11 C11         0.0525    1.0586   -0.2044 C.ar      1 <1>        -0.0814
     12 C12         5.8324    0.3551   -1.2372 C.ar      1 <1>        -0.0626
     13 C13         5.2376   -2.4647    0.4069 C.ar      1 <1>        -0.0617
     14 C14         5.0832   -1.2480    2.4884 C.ar      1 <1>        -0.0579
     15 C15         3.6005    1.3280   -0.9370 C.ar      1 <1>        -0.0328
     16 C16         1.2318    1.7791   -0.0153 C.ar      1 <1>        -0.0569
     17 C17         2.5005    1.1055   -0.0620 C.2       1 <1>        -0.0042
     18 C18         4.5985    0.4187   -0.5801 C.ar      1 <1>        -0.0252
     19 C19         4.8121   -1.3464    1.1237 C.ar      1 <1>        -0.0268
     20 C20         2.8455    0.0842    0.7929 C.2       1 <1>         0.1074
     21 C21         2.0567   -0.4874    1.8476 C.2       1 <1>         0.2214
     22 C22         0.9248   -0.0103    3.9105 C.3       1 <1>         0.0386
     23 N1          4.1127   -0.3234    0.4729 N.pl3     1 <1>        -0.3115
     24 O1          1.7086   -1.6846    1.9169 O.2       1 <1>        -0.4222
     25 O2          1.7129    0.4397    2.8033 O.3       1 <1>        -0.3424
     26 H1         -2.1901    3.5948    0.1111 H         1 <1>         0.1148
     27 H2          6.7466   -4.1809    2.9247 H         1 <1>         0.1232
     28 H3          5.2659    2.8504   -3.4903 H         1 <1>         0.1172
     29 H4         -0.0922    4.8764    0.4477 H         1 <1>         0.1155
     30 H5         -2.0974    1.1512   -0.3052 H         1 <1>         0.1163
     31 H6          6.9987    1.2251   -2.8220 H         1 <1>         0.1301
     32 H7          6.2645   -4.3559    0.4967 H         1 <1>         0.1253
     33 H8          5.9904   -2.1927    4.1992 H         1 <1>         0.1260
     34 H9          3.0926    2.9412   -2.3080 H         1 <1>         0.1358
     35 H10         2.0901    3.7289    0.3682 H         1 <1>         0.1230
     36 H11         0.0762   -0.0131   -0.3879 H         1 <1>         0.1239
     37 H12         6.5997   -0.3559   -0.9493 H         1 <1>         0.1260
     38 H13         5.0320   -2.5543   -0.6571 H         1 <1>         0.1319
     39 H14         4.7566   -0.3822    3.0593 H         1 <1>         0.1345
     40 H15         0.7296    0.8276    4.5842 H         1 <1>         0.1252
     41 H16         1.4596   -0.8018    4.4417 H         1 <1>         0.0954
     42 H17        -0.0237   -0.4022    3.5358 H         1 <1>         0.0957
@<TRIPOS>BOND
     1    1    4 ar
     2    1    5 ar
     3    2    7 ar
     4    2    8 ar
     5    3    6 ar
     6    3    9 ar
     7    4   10 ar
     8    5   11 ar
     9    6   12 ar
    10    7   13 ar
    11    8   14 ar
    12    9   15 ar
    13   10   16 ar
    14   11   16 ar
    15   12   18 ar
    16   13   19 ar
    17   14   19 ar
    18   15   17 1
    19   15   18 ar
    20   16   17 1
    21   17   20 2
    22   18   23 1
    23   19   23 1
    24   20   21 1
    25   20   23 1
    26   21   24 2
    27   21   25 1
    28   22   25 1
    29    1   26 1
    30    2   27 1
    31    3   28 1
    32    4   29 1
    33    5   30 1
    34    6   31 1
    35    7   32 1
    36    8   33 1
    37    9   34 1
    38   10   35 1
    39   11   36 1
    40   12   37 1
    41   13   38 1
    42   14   39 1
    43   22   40 1
    44   22   41 1
    45   22   42 1
@<TRIPOS>Similarity
1.5567
@<TRIPOS>ShapeSim
0.9186
@<TRIPOS>PharmSim
0.6381
# END
# Name:		AG-927/42926101
# Created and modified by SHAFTS on Thu Jun  3 03:39:13 2010

# 

@<TRIPOS>MOLECULE
AG-927/42926101
   29    31     0
SMALL
USER_CHARGE


@<TRIPOS>ATOM
      1 C1         -1.1850    2.9811    0.1565 C.ar      1 <1>        -0.1023
      2 C2          6.0595   -3.3433    2.4607 C.ar      1 <1>        -0.0966
      3 C3         -0.0171    3.7241    0.3280 C.ar      1 <1>        -0.0966
      4 C4         -1.1094    1.6110   -0.0942 C.ar      1 <1>        -0.0964
      5 C5          5.8278   -3.4590    1.0901 C.ar      1 <1>        -0.0871
      6 C6          5.6469   -2.1992    3.1437 C.ar      1 <1>        -0.0899
      7 C7          1.2265    3.0971    0.2486 C.ar      1 <1>        -0.0743
      8 C8          0.1340    0.9840   -0.1737 C.ar      1 <1>        -0.0741
      9 C9          5.1837   -2.4305    0.4025 C.ar      1 <1>        -0.0509
     10 C10         5.0027   -1.1707    2.4560 C.ar      1 <1>        -0.0554
     11 C11         1.3020    1.7270   -0.0022 C.ar      1 <1>        -0.0260
     12 C12         4.7711   -1.2863    1.0854 C.ar      1 <1>        -0.0021
     13 C13         3.6268    1.3593   -0.9859 C.2       1 <1>         0.0847
     14 C14         2.5821    1.0814   -0.0841 C.2       1 <1>         0.0494
     15 C15         4.6181    0.4711   -0.6471 C.2       1 <1>         0.1076
     16 N1          2.8817    0.0936    0.7636 N.2       1 <1>        -0.2872
     17 N2          4.1260   -0.2568    0.3960 N.pl3     1 <1>        -0.2563
     18 Cl1         3.6402    2.5328   -2.2091 Cl        1 <1>        -0.1078
     19 Cl2         6.1715    0.2010   -1.2811 Cl        1 <1>        -0.0332
     20 H1         -2.1533    3.4689    0.2194 H         1 <1>         0.1216
     21 H2          6.5594   -4.1446    2.9970 H         1 <1>         0.1263
     22 H3         -0.0757    4.7906    0.5244 H         1 <1>         0.1205
     23 H4         -2.0190    1.0325   -0.2265 H         1 <1>         0.1217
     24 H5          6.1478   -4.3503    0.5584 H         1 <1>         0.1316
     25 H6          5.8263   -2.1104    4.2113 H         1 <1>         0.1317
     26 H7          2.1279    3.6902    0.3846 H         1 <1>         0.1319
     27 H8          0.1760   -0.0849   -0.3698 H         1 <1>         0.1329
     28 H9          5.0086   -2.5337   -0.6658 H         1 <1>         0.1420
     29 H10         4.6857   -0.2846    3.0007 H         1 <1>         0.1342
@<TRIPOS>BOND
     1    1    3 ar
     2    1    4 ar
     3    2    5 ar
     4    2    6 ar
     5    3    7 ar
     6    4    8 ar
     7    5    9 ar
     8    6   10 ar
     9    7   11 ar
    10    8   11 ar
    11    9   12 ar
    12   10   12 ar
    13   11   14 1
    14   12   17 1
    15   13   14 1
    16   13   15 2
    17   13   18 1
    18   14   16 2
    19   15   17 1
    20   15   19 1
    21   16   17 1
    22    1   20 1
    23    2   21 1
    24    3   22 1
    25    4   23 1
    26    5   24 1
    27    6   25 1
    28    7   26 1
    29    8   27 1
    30    9   28 1
    31   10   29 1
@<TRIPOS>Similarity
1.5563
@<TRIPOS>ShapeSim
0.9301
@<TRIPOS>PharmSim
0.6262
# END
# Name:		AG-690/40639050
# Created and modified by SHAFTS on Thu Jun  3 03:39:13 2010

# 

@<TRIPOS>MOLECULE
AG-690/40639050
   36    38     0
SMALL
USER_CHARGE


@<TRIPOS>ATOM
      1 C1          3.1856    2.8258   -2.3429 C.1       1 <1>         0.0812
      2 C2          5.9493   -2.5165    2.7237 C.2       1 <1>        -0.1021
      3 C3          1.3193    2.8902    0.6634 C.ar      1 <1>        -0.0844
      4 C4          0.3977    1.2428   -0.8444 C.ar      1 <1>        -0.0856
      5 C5          0.0396    3.3943    0.8950 C.ar      1 <1>        -0.0969
      6 C6         -0.8821    1.7468   -0.6128 C.ar      1 <1>        -0.0971
      7 C7          5.3763   -1.2834    2.2980 C.2       1 <1>        -0.0826
      8 C8          3.2974    0.2750    0.3761 C.ar      1 <1>        -0.0142
      9 C9          6.1212   -3.3958    1.6773 C.2       1 <1>        -0.0422
     10 C10         3.6304    1.7792   -1.4708 C.ar      1 <1>         0.1506
     11 C11         1.4985    1.8145   -0.2064 C.ar      1 <1>        -0.0571
     12 C12         2.8259    1.2919   -0.4468 C.ar      1 <1>        -0.0016
     13 C13        -1.0612    2.8226    0.2570 C.ar      1 <1>        -0.1137
     14 C14         4.5703   -0.2164    0.1352 C.ar      1 <1>         0.0085
     15 C15         5.1323   -1.2671    0.9421 C.2       1 <1>         0.0163
     16 C16         4.8884    1.2205   -1.6289 C.ar      1 <1>         0.1219
     17 C17        -2.4295    3.3616    0.5044 C.3       1 <1>        -0.0412
     18 C18         6.9942    1.0405   -2.7192 C.3       1 <1>         0.0422
     19 N1          2.8255    3.6735   -3.0491 N.1       1 <1>        -0.3659
     20 N2          5.3808    0.2317   -0.8495 N.ar      1 <1>        -0.3320
     21 O1          5.7205    1.6656   -2.6241 O.3       1 <1>        -0.3614
     22 S1          5.5930   -2.7343    0.1888 S.3       1 <1>        -0.1140
     23 H1          6.2223   -2.7471    3.7451 H         1 <1>         0.1163
     24 H2          2.1675    3.3472    1.1678 H         1 <1>         0.1316
     25 H3          0.5209    0.4034   -1.5247 H         1 <1>         0.1256
     26 H4         -0.0904    4.2333    1.5734 H         1 <1>         0.1228
     27 H5         -1.7343    1.2949   -1.1137 H         1 <1>         0.1221
     28 H6          5.1585   -0.4540    2.9595 H         1 <1>         0.1358
     29 H7          2.6886   -0.1229    1.1835 H         1 <1>         0.1461
     30 H8          6.5322   -4.3947    1.7157 H         1 <1>         0.1730
     31 H9         -2.6644    4.1535   -0.2173 H         1 <1>         0.0589
     32 H10        -3.1897    2.5746    0.4171 H         1 <1>         0.0557
     33 H11        -2.5171    3.7767    1.5170 H         1 <1>         0.0552
     34 H12         7.5567    1.4818   -3.5456 H         1 <1>         0.1006
     35 H13         6.8634   -0.0318   -2.8850 H         1 <1>         0.1273
     36 H14         7.5386    1.1990   -1.7853 H         1 <1>         0.1006
@<TRIPOS>BOND
     1    1   10 1
     2    1   19 3
     3    2    7 1
     4    2    9 2
     5    3    5 ar
     6    3   11 ar
     7    4    6 ar
     8    4   11 ar
     9    5   13 ar
    10    6   13 ar
    11    7   15 2
    12    8   12 ar
    13    8   14 ar
    14    9   22 1
    15   10   12 ar
    16   10   16 ar
    17   11   12 1
    18   13   17 1
    19   14   15 1
    20   14   20 ar
    21   15   22 1
    22   16   20 ar
    23   16   21 1
    24   18   21 1
    25    2   23 1
    26    3   24 1
    27    4   25 1
    28    5   26 1
    29    6   27 1
    30    7   28 1
    31    8   29 1
    32    9   30 1
    33   17   31 1
    34   17   32 1
    35   17   33 1
    36   18   34 1
    37   18   35 1
    38   18   36 1
@<TRIPOS>Similarity
1.5558
@<TRIPOS>ShapeSim
0.9211
@<TRIPOS>PharmSim
0.6347
# END
# Name:		AK-087/42718336
# Created and modified by SHAFTS on Thu Jun  3 03:39:13 2010

# 

@<TRIPOS>MOLECULE
AK-087/42718336
   37    39     0
SMALL
USER_CHARGE


@<TRIPOS>ATOM
      1 C1          5.9730    0.6048   -2.6382 C.1       1 <1>         0.0326
      2 C2          1.2279    3.1003    0.2471 C.ar      1 <1>        -0.0637
      3 C3          0.1205    0.9962   -0.1811 C.ar      1 <1>        -0.0633
      4 C4          5.1924   -2.4285    0.3973 C.ar      1 <1>        -0.0465
      5 C5          5.0122   -1.1832    2.4598 C.ar      1 <1>        -0.0493
      6 C6          5.8525   -3.4540    1.0742 C.ar      1 <1>        -0.0444
      7 C7          5.6722   -2.2087    3.1367 C.ar      1 <1>        -0.0533
      8 C8         -0.0104    3.7390    0.3115 C.ar      1 <1>        -0.0741
      9 C9         -1.1178    1.6349   -0.1167 C.ar      1 <1>        -0.0740
     10 C10         3.6140    1.3513   -0.9662 C.2       1 <1>        -0.0348
     11 C11         1.2935    1.7289    0.0006 C.ar      1 <1>        -0.0277
     12 C12         4.7723   -1.2931    1.0901 C.ar      1 <1>        -0.0056
     13 C13         6.0924   -3.3442    2.4439 C.ar      1 <1>        -0.0066
     14 C14        -1.1833    3.0062    0.1297 C.ar      1 <1>        -0.0399
     15 C15         2.5683    1.0713   -0.0663 C.2       1 <1>         0.0115
     16 C16         4.6052    0.4626   -0.6279 C.2       1 <1>        -0.0005
     17 C17         6.9478   -4.1667    4.5049 C.3       1 <1>         0.0253
     18 C18         5.9500    0.2615   -1.2026 C.3       1 <1>         0.1208
     19 N1          5.9806    0.8759   -3.7665 N.1       1 <1>        -0.3856
     20 N2          2.8672    0.0821    0.7799 N.2       1 <1>        -0.3100
     21 N3          4.1119   -0.2673    0.4132 N.pl3     1 <1>        -0.2891
     22 O1          6.7357   -4.3449    3.1053 O.3       1 <1>        -0.4154
     23 Br1        -2.8610    3.8718    0.2156 Br        1 <1>        -0.1109
     24 H1          2.1330    3.6856    0.3909 H         1 <1>         0.1416
     25 H2          0.1549   -0.0735   -0.3755 H         1 <1>         0.1424
     26 H3          5.0122   -2.5272   -0.6705 H         1 <1>         0.1410
     27 H4          4.6906   -0.3033    3.0117 H         1 <1>         0.1502
     28 H5          6.1774   -4.3364    0.5295 H         1 <1>         0.1417
     29 H6          5.8554   -2.1169    4.2038 H         1 <1>         0.1253
     30 H7         -0.0435    4.8082    0.5030 H         1 <1>         0.1378
     31 H8         -2.0224    1.0498   -0.2624 H         1 <1>         0.1366
     32 H9          3.6484    2.0929   -1.7517 H         1 <1>         0.1375
     33 H10         7.4705   -5.0372    4.9087 H         1 <1>         0.0907
     34 H11         5.9853   -4.0408    5.0071 H         1 <1>         0.0909
     35 H12         7.5575   -3.2736    4.6611 H         1 <1>         0.1238
     36 H13         6.2861   -0.7830   -1.0800 H         1 <1>         0.1659
     37 H14         6.7059    0.8711   -0.6776 H         1 <1>         0.1789
@<TRIPOS>BOND
     1    1   18 1
     2    1   19 3
     3    2    8 ar
     4    2   11 ar
     5    3    9 ar
     6    3   11 ar
     7    4    6 ar
     8    4   12 ar
     9    5    7 ar
    10    5   12 ar
    11    6   13 ar
    12    7   13 ar
    13    8   14 ar
    14    9   14 ar
    15   10   15 1
    16   10   16 2
    17   11   15 1
    18   12   21 1
    19   13   22 1
    20   14   23 1
    21   15   20 2
    22   16   18 1
    23   16   21 1
    24   17   22 1
    25   20   21 1
    26    2   24 1
    27    3   25 1
    28    4   26 1
    29    5   27 1
    30    6   28 1
    31    7   29 1
    32    8   30 1
    33    9   31 1
    34   10   32 1
    35   17   33 1
    36   17   34 1
    37   17   35 1
    38   18   36 1
    39   18   37 1
@<TRIPOS>Similarity
1.5556
@<TRIPOS>ShapeSim
0.9005
@<TRIPOS>PharmSim
0.6551
# END
# Name:		AG-690/13704183
# Created and modified by SHAFTS on Thu Jun  3 03:39:13 2010

# 

@<TRIPOS>MOLECULE
AG-690/13704183
   48    51     0
SMALL
USER_CHARGE


@<TRIPOS>ATOM
      1 C1          5.9423   -3.5738    2.7704 C.ar      1 <1>        -0.1025
      2 C2          5.5824   -2.3548    3.3451 C.ar      1 <1>        -0.0989
      3 C3          5.8349   -3.7534    1.3914 C.ar      1 <1>        -0.0956
      4 C4          5.1150   -1.3154    2.5407 C.ar      1 <1>        -0.0786
      5 C5          5.3676   -2.7142    0.5869 C.ar      1 <1>        -0.0729
      6 C6          1.3406    2.8011    0.7397 C.ar      1 <1>        -0.0768
      7 C7          0.4277    1.1905   -0.8127 C.ar      1 <1>        -0.0766
      8 C8          0.0730    3.3593    0.9059 C.ar      1 <1>        -0.0671
      9 C9         -0.8397    1.7486   -0.6465 C.ar      1 <1>        -0.0668
     10 C10         3.2577    0.1031    0.5320 C.ar      1 <1>        -0.0224
     11 C11         3.7008    1.6123   -1.2950 C.ar      1 <1>         0.0162
     12 C12         1.5179    1.7167   -0.1197 C.ar      1 <1>        -0.0602
     13 C13         5.0075   -1.4951    1.1616 C.ar      1 <1>        -0.0282
     14 C14         2.8303    1.1393   -0.2921 C.ar      1 <1>        -0.0385
     15 C15         3.5687    2.6399   -2.2832 C.2       1 <1>        -0.0324
     16 C16        -1.0170    2.8329    0.2128 C.ar      1 <1>        -0.0116
     17 C17         4.5233   -0.4177    0.3282 C.ar      1 <1>         0.0050
     18 C18         4.6916    2.7632   -3.0716 C.2       1 <1>         0.1284
     19 C19         4.9446    0.9962   -1.3870 C.ar      1 <1>         0.0637
     20 C20         4.9480    3.6609   -4.1536 C.2       1 <1>         0.1884
     21 C21         8.0780    4.5578   -5.7568 C.3       1 <1>        -0.0383
     22 C22         6.1358    3.6797   -7.1016 C.3       1 <1>        -0.0345
     23 C23         6.5751    4.3263   -5.7968 C.3       1 <1>         0.0209
     24 N1          5.4021   -0.0095   -0.6122 N.ar      1 <1>        -0.3474
     25 N2          2.4713    3.4203   -2.4473 N.pl3     1 <1>        -0.3949
     26 O1          4.1507    4.5264   -4.5827 O.2       1 <1>        -0.4544
     27 O2          6.1990    3.4830   -4.7028 O.3       1 <1>        -0.3470
     28 S1          5.9108    1.6482   -2.6317 S.3       1 <1>        -0.0265
     29 Cl1        -2.5804    3.5231    0.4172 Cl        1 <1>        -0.1359
     30 H1          6.3078   -4.3822    3.3968 H         1 <1>         0.1224
     31 H2          5.6674   -2.2142    4.4186 H         1 <1>         0.1199
     32 H3          6.1163   -4.7018    0.9431 H         1 <1>         0.1205
     33 H4          4.8386   -0.3711    3.0037 H         1 <1>         0.1290
     34 H5          5.2898   -2.8687   -0.4867 H         1 <1>         0.1416
     35 H6          2.1805    3.2226    1.2867 H         1 <1>         0.1399
     36 H7          0.5501    0.3459   -1.4869 H         1 <1>         0.1405
     37 H8         -0.0507    4.2054    1.5773 H         1 <1>         0.1377
     38 H9         -1.6801    1.3290   -1.1938 H         1 <1>         0.1387
     39 H10         2.6123   -0.2860    1.3154 H         1 <1>         0.1475
     40 H11         8.6277    3.6199   -5.8823 H         1 <1>         0.0443
     41 H12         8.3783    5.2487   -6.5517 H         1 <1>         0.0500
     42 H13         8.3812    5.0177   -4.8097 H         1 <1>         0.0399
     43 H14         6.6393    2.7210   -7.2593 H         1 <1>         0.0479
     44 H15         6.3621    4.3372   -7.9480 H         1 <1>         0.0578
     45 H16         5.0531    3.5129   -7.1139 H         1 <1>         0.0506
     46 H17         6.0548    5.2811   -5.6688 H         1 <1>         0.1123
     47 H18         1.6226    3.2869   -1.8841 H         1 <1>         0.2672
     48 H19         2.4078    4.1133   -3.2029 H         1 <1>         0.2776
@<TRIPOS>BOND
     1    1    2 ar
     2    1    3 ar
     3    2    4 ar
     4    3    5 ar
     5    4   13 ar
     6    5   13 ar
     7    6    8 ar
     8    6   12 ar
     9    7    9 ar
    10    7   12 ar
    11    8   16 ar
    12    9   16 ar
    13   10   14 ar
    14   10   17 ar
    15   11   14 ar
    16   11   15 1
    17   11   19 ar
    18   12   14 1
    19   13   17 1
    20   15   18 2
    21   15   25 1
    22   16   29 1
    23   17   24 ar
    24   18   20 1
    25   18   28 1
    26   19   24 ar
    27   19   28 1
    28   20   26 2
    29   20   27 1
    30   21   23 1
    31   22   23 1
    32   23   27 1
    33    1   30 1
    34    2   31 1
    35    3   32 1
    36    4   33 1
    37    5   34 1
    38    6   35 1
    39    7   36 1
    40    8   37 1
    41    9   38 1
    42   10   39 1
    43   21   40 1
    44   21   41 1
    45   21   42 1
    46   22   43 1
    47   22   44 1
    48   22   45 1
    49   23   46 1
    50   25   47 1
    51   25   48 1
@<TRIPOS>Similarity
1.5539
@<TRIPOS>ShapeSim
0.8758
@<TRIPOS>PharmSim
0.6781
# END
# Name:		AG-205/12125110
# Created and modified by SHAFTS on Thu Jun  3 03:39:13 2010

# 

@<TRIPOS>MOLECULE
AG-205/12125110
   37    39     0
SMALL
USER_CHARGE


@<TRIPOS>ATOM
      1 C1          3.1018    2.8416   -2.2163 C.1       1 <1>         0.0650
      2 C2          4.5420   -1.4792    2.3588 C.ar      1 <1>        -0.0722
      3 C3          5.8655   -2.2325    0.4832 C.ar      1 <1>        -0.0768
      4 C4          1.1944    2.8720    0.7522 C.ar      1 <1>        -0.0736
      5 C5          0.2824    1.2630   -0.8023 C.ar      1 <1>        -0.0754
      6 C6          5.0530   -2.5180    3.1367 C.ar      1 <1>        -0.0956
      7 C7          6.3766   -3.2714    1.2611 C.ar      1 <1>        -0.0980
      8 C8         -0.0838    3.3860    0.9701 C.ar      1 <1>        -0.0666
      9 C9         -0.9958    1.7769   -0.5844 C.ar      1 <1>        -0.0671
     10 C10         3.1476    0.2409    0.4526 C.ar      1 <1>        -0.0250
     11 C11         3.5330    1.7738   -1.3602 C.ar      1 <1>         0.1245
     12 C12         1.3776    1.8105   -0.1340 C.ar      1 <1>        -0.0526
     13 C13         4.9482   -1.3364    1.0320 C.ar      1 <1>        -0.0280
     14 C14         2.7037    1.2777   -0.3605 C.ar      1 <1>        -0.0115
     15 C15         5.9703   -3.4141    2.5879 C.ar      1 <1>        -0.1155
     16 C16        -1.1790    2.8385    0.3019 C.ar      1 <1>        -0.0124
     17 C17         4.4191   -0.2613    0.2269 C.ar      1 <1>        -0.0030
     18 C18         4.7873    1.2031   -1.5046 C.ar      1 <1>         0.0263
     19 C19         6.5166   -4.5251    3.4195 C.3       1 <1>        -0.0418
     20 N1          2.7531    3.7053   -2.9085 N.1       1 <1>        -0.3768
     21 N2          5.2534    0.1948   -0.7341 N.ar      1 <1>        -0.3487
     22 N3          5.6482    1.6948   -2.5186 N.pl3     1 <1>        -0.3641
     23 Cl1        -2.7557    3.4742    0.5701 Cl        1 <1>        -0.1390
     24 H1          3.8272   -0.7892    2.8009 H         1 <1>         0.1415
     25 H2          6.1924   -2.1340   -0.5493 H         1 <1>         0.1319
     26 H3          2.0381    3.3096    1.2804 H         1 <1>         0.1420
     27 H4          0.4092    0.4359   -1.4970 H         1 <1>         0.1344
     28 H5          4.7301   -2.6223    4.1690 H         1 <1>         0.1188
     29 H6          7.0914   -3.9647    0.8255 H         1 <1>         0.1196
     30 H7         -0.2122    4.2147    1.6620 H         1 <1>         0.1377
     31 H8         -1.8400    1.3412   -1.1129 H         1 <1>         0.1365
     32 H9          2.5192   -0.1639    1.2413 H         1 <1>         0.1367
     33 H10         5.8832   -5.4161    3.3302 H         1 <1>         0.0586
     34 H11         7.5359   -4.7905    3.1102 H         1 <1>         0.0548
     35 H12         6.5701   -4.2409    4.4785 H         1 <1>         0.0546
     36 H13         5.3122    2.4048   -3.1312 H         1 <1>         0.2795
     37 H14         6.5313    1.2540   -2.6537 H         1 <1>         0.2809
@<TRIPOS>BOND
     1    1   11 1
     2    1   20 3
     3    2    6 ar
     4    2   13 ar
     5    3    7 ar
     6    3   13 ar
     7    4    8 ar
     8    4   12 ar
     9    5    9 ar
    10    5   12 ar
    11    6   15 ar
    12    7   15 ar
    13    8   16 ar
    14    9   16 ar
    15   10   14 ar
    16   10   17 ar
    17   11   14 ar
    18   11   18 ar
    19   12   14 1
    20   13   17 1
    21   15   19 1
    22   16   23 1
    23   17   21 ar
    24   18   21 ar
    25   18   22 1
    26    2   24 1
    27    3   25 1
    28    4   26 1
    29    5   27 1
    30    6   28 1
    31    7   29 1
    32    8   30 1
    33    9   31 1
    34   10   32 1
    35   19   33 1
    36   19   34 1
    37   19   35 1
    38   22   36 1
    39   22   37 1
@<TRIPOS>Similarity
1.5521
@<TRIPOS>ShapeSim
0.9160
@<TRIPOS>PharmSim
0.6361
# END
# Name:		AO-476/42129205
# Created and modified by SHAFTS on Thu Jun  3 03:39:13 2010

# 

@<TRIPOS>MOLECULE
AO-476/42129205
   37    39     0
SMALL
USER_CHARGE


@<TRIPOS>ATOM
      1 C1          3.1019    2.8417   -2.2163 C.1       1 <1>         0.0641
      2 C2          1.1945    2.8720    0.7521 C.ar      1 <1>        -0.0865
      3 C3          0.2826    1.2629   -0.8023 C.ar      1 <1>        -0.0851
      4 C4          4.5419   -1.4791    2.3588 C.ar      1 <1>        -0.0644
      5 C5          5.8654   -2.2324    0.4832 C.ar      1 <1>        -0.0599
      6 C6         -0.0837    3.3858    0.9702 C.ar      1 <1>        -0.0986
      7 C7         -0.9958    1.7766   -0.5841 C.ar      1 <1>        -0.0983
      8 C8          5.0529   -2.5180    3.1367 C.ar      1 <1>        -0.0429
      9 C9          6.3765   -3.2713    1.2612 C.ar      1 <1>        -0.0405
     10 C10         3.1476    0.2410    0.4525 C.ar      1 <1>        -0.0274
     11 C11         3.5330    1.7739   -1.3603 C.ar      1 <1>         0.1240
     12 C12         1.3778    1.8106   -0.1342 C.ar      1 <1>        -0.0595
     13 C13         4.9481   -1.3364    1.0320 C.ar      1 <1>        -0.0220
     14 C14         2.7036    1.2779   -0.3606 C.ar      1 <1>        -0.0148
     15 C15        -1.1789    2.8382    0.3022 C.ar      1 <1>        -0.1151
     16 C16         5.9703   -3.4140    2.5879 C.ar      1 <1>         0.0640
     17 C17         4.4191   -0.2613    0.2268 C.ar      1 <1>        -0.0043
     18 C18         4.7874    1.2032   -1.5046 C.ar      1 <1>         0.0231
     19 C19        -2.5456    3.3876    0.5352 C.3       1 <1>        -0.0419
     20 N1          2.7532    3.7054   -2.9085 N.1       1 <1>        -0.3800
     21 N2          5.2534    0.1948   -0.7342 N.ar      1 <1>        -0.3516
     22 N3          5.6484    1.6948   -2.5186 N.pl3     1 <1>        -0.3643
     23 F1          6.4610   -4.4117    3.3350 F         1 <1>        -0.2662
     24 H1          2.0383    3.3102    1.2799 H         1 <1>         0.1233
     25 H2          0.4091    0.4349   -1.4956 H         1 <1>         0.1304
     26 H3          3.8274   -0.7889    2.8009 H         1 <1>         0.1454
     27 H4          6.1921   -2.1344   -0.5493 H         1 <1>         0.1548
     28 H5         -0.2169    4.2137    1.6616 H         1 <1>         0.1202
     29 H6         -1.8435    1.3434   -1.1084 H         1 <1>         0.1213
     30 H7          4.7366   -2.6295    4.1696 H         1 <1>         0.1335
     31 H8          7.0909   -3.9693    0.8347 H         1 <1>         0.1326
     32 H9          2.5191   -0.1638    1.2411 H         1 <1>         0.1332
     33 H10        -2.7590    4.1951   -0.1757 H         1 <1>         0.0532
     34 H11        -3.3125    2.6107    0.4198 H         1 <1>         0.0579
     35 H12        -2.6470    3.7849    1.5537 H         1 <1>         0.0574
     36 H13         5.3123    2.4049   -3.1311 H         1 <1>         0.2916
     37 H14         6.5314    1.2540   -2.6536 H         1 <1>         0.2936
@<TRIPOS>BOND
     1    1   11 1
     2    1   20 3
     3    2    6 ar
     4    2   12 ar
     5    3    7 ar
     6    3   12 ar
     7    4    8 ar
     8    4   13 ar
     9    5    9 ar
    10    5   13 ar
    11    6   15 ar
    12    7   15 ar
    13    8   16 ar
    14    9   16 ar
    15   10   14 ar
    16   10   17 ar
    17   11   14 ar
    18   11   18 ar
    19   12   14 1
    20   13   17 1
    21   15   19 1
    22   16   23 1
    23   17   21 ar
    24   18   21 ar
    25   18   22 1
    26    2   24 1
    27    3   25 1
    28    4   26 1
    29    5   27 1
    30    6   28 1
    31    7   29 1
    32    8   30 1
    33    9   31 1
    34   10   32 1
    35   19   33 1
    36   19   34 1
    37   19   35 1
    38   22   36 1
    39   22   37 1
@<TRIPOS>Similarity
1.5508
@<TRIPOS>ShapeSim
0.9188
@<TRIPOS>PharmSim
0.6321
# END
# Name:		AG-927/42926100
# Created and modified by SHAFTS on Thu Jun  3 03:39:13 2010

# 

@<TRIPOS>MOLECULE
AG-927/42926100
   32    34     0
SMALL
USER_CHARGE


@<TRIPOS>ATOM
      1 C1         -1.1834    3.0061    0.1300 C.ar      1 <1>        -0.1055
      2 C2          6.0925   -3.3445    2.4434 C.ar      1 <1>        -0.1004
      3 C3         -0.0602    3.7058   -0.3112 C.ar      1 <1>        -0.0995
      4 C4         -1.0681    1.6680    0.5064 C.ar      1 <1>        -0.0995
      5 C5          5.8521   -3.4540    1.0738 C.ar      1 <1>        -0.0906
      6 C6          5.6727   -2.2092    3.1367 C.ar      1 <1>        -0.0934
      7 C7          1.1781    3.0673   -0.3761 C.ar      1 <1>        -0.0772
      8 C8          0.1703    1.0294    0.4416 C.ar      1 <1>        -0.0767
      9 C9          5.1919   -2.4281    0.3974 C.ar      1 <1>        -0.0532
     10 C10         5.0127   -1.1833    2.4602 C.ar      1 <1>        -0.0573
     11 C11         3.6141    1.3510   -0.9664 C.2       1 <1>        -0.0482
     12 C12         1.2935    1.7290    0.0004 C.ar      1 <1>        -0.0375
     13 C13         4.7723   -1.2928    1.0906 C.ar      1 <1>        -0.0104
     14 C14         2.5683    1.0714   -0.0665 C.2       1 <1>         0.0011
     15 C15         4.6052    0.4624   -0.6279 C.2       1 <1>        -0.0460
     16 C16         5.9500    0.2610   -1.2026 C.3       1 <1>        -0.0097
     17 N1          2.8672    0.0824    0.7800 N.2       1 <1>        -0.3192
     18 N2          4.1119   -0.2673    0.4135 N.pl3     1 <1>        -0.2989
     19 H1         -2.1476    3.5035    0.1816 H         1 <1>         0.1178
     20 H2          6.6048   -4.1438    2.9708 H         1 <1>         0.1213
     21 H3         -0.1496    4.7480   -0.6031 H         1 <1>         0.1189
     22 H4         -1.9425    1.1237    0.8510 H         1 <1>         0.1179
     23 H5          6.1776   -4.3385    0.5341 H         1 <1>         0.1282
     24 H6          5.8592   -2.1254    4.2035 H         1 <1>         0.1283
     25 H7          2.0445    3.6262   -0.7222 H         1 <1>         0.1295
     26 H8          0.2436   -0.0142    0.7385 H         1 <1>         0.1304
     27 H9          5.0101   -2.5265   -0.6701 H         1 <1>         0.1371
     28 H10         4.6902   -0.3042    3.0130 H         1 <1>         0.1315
     29 H11         3.6485    2.0925   -1.7522 H         1 <1>         0.1267
     30 H12         6.6979    0.8904   -0.6932 H         1 <1>         0.0787
     31 H13         6.2823   -0.7878   -1.1200 H         1 <1>         0.0826
     32 H14         5.9813    0.5068   -2.2779 H         1 <1>         0.0731
@<TRIPOS>BOND
     1    1    3 ar
     2    1    4 ar
     3    2    5 ar
     4    2    6 ar
     5    3    7 ar
     6    4    8 ar
     7    5    9 ar
     8    6   10 ar
     9    7   12 ar
    10    8   12 ar
    11    9   13 ar
    12   10   13 ar
    13   11   14 1
    14   11   15 2
    15   12   14 1
    16   13   18 1
    17   14   17 2
    18   15   16 1
    19   15   18 1
    20   17   18 1
    21    1   19 1
    22    2   20 1
    23    3   21 1
    24    4   22 1
    25    5   23 1
    26    6   24 1
    27    7   25 1
    28    8   26 1
    29    9   27 1
    30   10   28 1
    31   11   29 1
    32   16   30 1
    33   16   31 1
    34   16   32 1
@<TRIPOS>Similarity
1.5503
@<TRIPOS>ShapeSim
0.8936
@<TRIPOS>PharmSim
0.6568
# END
# Name:		AG-401/43339472
# Created and modified by SHAFTS on Thu Jun  3 03:39:13 2010

# 

@<TRIPOS>MOLECULE
AG-401/43339472
   30    32     0
SMALL
USER_CHARGE


@<TRIPOS>ATOM
      1 C1          5.8519   -3.3939    2.6361 C.ar      1 <1>        -0.1030
      2 C2          6.3248   -3.3058    1.3268 C.ar      1 <1>        -0.0959
      3 C3          4.9523   -2.4431    3.1182 C.ar      1 <1>        -0.0956
      4 C4          5.8982   -2.2668    0.4997 C.ar      1 <1>        -0.0659
      5 C5          4.5257   -1.4042    2.2910 C.ar      1 <1>        -0.0652
      6 C6          1.4411    3.1065    0.1110 C.ar      1 <1>        -0.0545
      7 C7          0.1607    3.6081    0.3444 C.ar      1 <1>        -0.0518
      8 C8          3.7350    1.7611   -1.4694 C.ar      1 <1>        -0.0212
      9 C9          0.5056    0.9229   -0.3292 C.ar      1 <1>        -0.0360
     10 C10         4.9805    1.1816   -1.6000 C.ar      1 <1>        -0.0189
     11 C11         4.9986   -1.3160    0.9817 C.ar      1 <1>         0.0030
     12 C12         1.6136    1.7639   -0.2259 C.ar      1 <1>        -0.0169
     13 C13        -0.9472    2.7671    0.2411 C.ar      1 <1>         0.0220
     14 C14        -0.7749    1.4245   -0.0957 C.ar      1 <1>         0.0252
     15 C15         2.9390    1.2457   -0.4669 C.ar      1 <1>        -0.0022
     16 C16         4.5562   -0.2386    0.1234 C.ar      1 <1>         0.0466
     17 N1          5.4253    0.1762   -0.8179 N.ar      1 <1>        -0.3583
     18 N2          3.3191    0.2422    0.3510 N.ar      1 <1>        -0.3452
     19 Cl1        -2.5070    3.4475    0.5458 Cl        1 <1>        -0.1176
     20 Cl2        -2.1083    0.3328   -0.2350 Cl        1 <1>        -0.1203
     21 H1          6.1828   -4.2040    3.2793 H         1 <1>         0.1221
     22 H2          7.0239   -4.0469    0.9507 H         1 <1>         0.1190
     23 H3          4.5826   -2.5120    4.1370 H         1 <1>         0.1193
     24 H4          6.2758   -2.2119   -0.5187 H         1 <1>         0.1403
     25 H5          3.8236   -0.6707    2.6805 H         1 <1>         0.1421
     26 H6          2.2949    3.7751    0.1931 H         1 <1>         0.1589
     27 H7          0.0450    4.6573    0.6050 H         1 <1>         0.1487
     28 H8          3.4168    2.5670   -2.1189 H         1 <1>         0.1381
     29 H9          0.6419   -0.1241   -0.5933 H         1 <1>         0.1559
     30 H10         5.6764    1.5199   -2.3603 H         1 <1>         0.2273
@<TRIPOS>BOND
     1    1    2 ar
     2    1    3 ar
     3    2    4 ar
     4    3    5 ar
     5    4   11 ar
     6    5   11 ar
     7    6    7 ar
     8    6   12 ar
     9    7   13 ar
    10    8   10 ar
    11    8   15 ar
    12    9   12 ar
    13    9   14 ar
    14   10   17 ar
    15   11   16 1
    16   12   15 1
    17   13   14 ar
    18   13   19 1
    19   14   20 1
    20   15   18 ar
    21   16   17 ar
    22   16   18 ar
    23    1   21 1
    24    2   22 1
    25    3   23 1
    26    4   24 1
    27    5   25 1
    28    6   26 1
    29    7   27 1
    30    8   28 1
    31    9   29 1
    32   10   30 1
@<TRIPOS>Similarity
1.5470
@<TRIPOS>ShapeSim
0.9026
@<TRIPOS>PharmSim
0.6444
# END
# Name:		AI-060/41884474
# Created and modified by SHAFTS on Thu Jun  3 03:39:13 2010

# 

@<TRIPOS>MOLECULE
AI-060/41884474
   39    42     0
SMALL
USER_CHARGE


@<TRIPOS>ATOM
      1 C1          5.1340   -1.2573    2.4691 C.ar      1 <1>        -0.0708
      2 C2          5.4053   -2.6892    0.5422 C.ar      1 <1>        -0.0783
      3 C3          1.5258    2.8866    0.5427 C.ar      1 <1>        -0.0616
      4 C4          0.6143    1.2751   -1.0096 C.ar      1 <1>        -0.0761
      5 C5          5.5507   -2.2969    3.3003 C.ar      1 <1>        -0.0976
      6 C6          5.8222   -3.7289    1.3734 C.ar      1 <1>        -0.1023
      7 C7          0.2582    3.4450    0.7073 C.ar      1 <1>        -0.0629
      8 C8         -0.6533    1.8335   -0.8450 C.ar      1 <1>        -0.0745
      9 C9          3.3747    0.1914    0.3750 C.ar      1 <1>        -0.0368
     10 C10         1.7037    1.8017   -0.3158 C.ar      1 <1>        -0.0474
     11 C11         5.0612   -1.4534    1.0899 C.ar      1 <1>        -0.0290
     12 C12         3.0218    1.2215   -0.4875 C.ar      1 <1>        -0.0311
     13 C13         3.9348    1.6365   -1.4534 C.ar      1 <1>         0.0899
     14 C14         5.8949   -3.5327    2.7526 C.ar      1 <1>        -0.1193
     15 C15        -0.8313    2.9184    0.0136 C.ar      1 <1>        -0.0209
     16 C16         4.6295   -0.3773    0.2295 C.ar      1 <1>        -0.0025
     17 C17         5.1773    1.0107   -1.5320 C.ar      1 <1>         0.0555
     18 C18         3.6202    2.7247   -2.3979 C.2       1 <1>         0.1259
     19 C19         5.8537    2.3381   -3.3046 C.2       1 <1>        -0.0264
     20 C20         6.3403   -4.6443    3.6414 C.3       1 <1>        -0.0447
     21 N1          5.5358    0.0058   -0.6995 N.ar      1 <1>        -0.3393
     22 N2          6.1475    1.3795   -2.4825 N.2       1 <1>        -0.3294
     23 N3          4.6418    3.0078   -3.2897 N.am      1 <1>        -0.2580
     24 O1          2.5547    3.3293   -2.4030 O.2       1 <1>        -0.4802
     25 S1          7.1392    2.7629   -4.4960 S.3       1 <1>        -0.4227
     26 Cl1        -2.3948    3.6089    0.2162 Cl        1 <1>        -0.1532
     27 H1          4.8684   -0.3000    2.9113 H         1 <1>         0.1448
     28 H2          5.3545   -2.8574   -0.5310 H         1 <1>         0.1286
     29 H3          2.3652    3.3082    1.0903 H         1 <1>         0.1490
     30 H4          0.7371    0.4303   -1.6832 H         1 <1>         0.1330
     31 H5          5.6033   -2.1355    4.3738 H         1 <1>         0.1165
     32 H6          6.0889   -4.6884    0.9380 H         1 <1>         0.1143
     33 H7          0.1339    4.2914    1.3782 H         1 <1>         0.1289
     34 H8         -1.4932    1.4137   -1.3928 H         1 <1>         0.1254
     35 H9          2.6898   -0.1618    1.1414 H         1 <1>         0.1245
     36 H10         5.4799   -5.2430    3.9648 H         1 <1>         0.0518
     37 H11         7.0504   -5.3052    3.1276 H         1 <1>         0.0545
     38 H12         6.8522   -4.2605    4.5335 H         1 <1>         0.0545
     39 H13         4.4934    3.7459   -3.9715 H         1 <1>         0.3676
@<TRIPOS>BOND
     1    1    5 ar
     2    1   11 ar
     3    2    6 ar
     4    2   11 ar
     5    3    7 ar
     6    3   10 ar
     7    4    8 ar
     8    4   10 ar
     9    5   14 ar
    10    6   14 ar
    11    7   15 ar
    12    8   15 ar
    13    9   12 ar
    14    9   16 ar
    15   10   12 1
    16   11   16 1
    17   12   13 ar
    18   13   17 ar
    19   13   18 1
    20   14   20 1
    21   15   26 1
    22   16   21 ar
    23   17   21 ar
    24   17   22 1
    25   18   23 am
    26   18   24 2
    27   19   22 2
    28   19   23 1
    29   19   25 1
    30    1   27 1
    31    2   28 1
    32    3   29 1
    33    4   30 1
    34    5   31 1
    35    6   32 1
    36    7   33 1
    37    8   34 1
    38    9   35 1
    39   20   36 1
    40   20   37 1
    41   20   38 1
    42   23   39 1
@<TRIPOS>Similarity
1.5470
@<TRIPOS>ShapeSim
0.9209
@<TRIPOS>PharmSim
0.6261
# END
# Name:		AO-476/43380440
# Created and modified by SHAFTS on Thu Jun  3 03:39:13 2010

# 

@<TRIPOS>MOLECULE
AO-476/43380440
   38    41     0
SMALL
USER_CHARGE


@<TRIPOS>ATOM
      1 C1          5.9648   -3.5870    2.7715 C.ar      1 <1>        -0.1027
      2 C2          5.6077   -2.3663    3.3440 C.ar      1 <1>        -0.0989
      3 C3          5.8576   -3.7687    1.3926 C.ar      1 <1>        -0.0956
      4 C4         -0.7173    2.2157   -0.3333 C.2       1 <1>        -0.1042
      5 C5          5.1431   -1.3272    2.5377 C.ar      1 <1>        -0.0779
      6 C6          5.3932   -2.7296    0.5863 C.ar      1 <1>        -0.0720
      7 C7          0.3565    1.3712   -0.7380 C.2       1 <1>        -0.0945
      8 C8          3.2849    0.0922    0.5294 C.ar      1 <1>        -0.0163
      9 C9         -0.3074    3.1832    0.5576 C.2       1 <1>        -0.0469
     10 C10         3.7207    1.5910   -1.2850 C.ar      1 <1>         0.0431
     11 C11         5.0360   -1.5088    1.1588 C.ar      1 <1>        -0.0260
     12 C12         2.8458    1.1304   -0.2900 C.ar      1 <1>        -0.0290
     13 C13         3.6897    2.5829   -2.2972 C.2       1 <1>        -0.0195
     14 C14         4.5545   -0.4314    0.3232 C.ar      1 <1>         0.0114
     15 C15         1.5466    1.7255   -0.1411 C.2       1 <1>        -0.0224
     16 C16         4.9031    2.5136   -2.9410 C.2       1 <1>         0.1245
     17 C17         4.9678    0.9765   -1.3834 C.ar      1 <1>         0.1105
     18 C18         5.4426    3.2562   -4.0305 C.2       1 <1>         0.0977
     19 C19         6.8407    2.9239   -4.5103 C.3       1 <1>         0.0401
     20 N1          5.4382   -0.0274   -0.6186 N.ar      1 <1>        -0.3230
     21 N2          2.6833    3.4346   -2.5877 N.pl3     1 <1>        -0.3906
     22 O1          4.8700    4.1815   -4.6460 O.2       1 <1>        -0.4747
     23 O2          5.6840    1.5448   -2.3963 O.3       1 <1>        -0.3078
     24 S1          1.3661    3.0711    0.9025 S.3       1 <1>        -0.1328
     25 H1          6.3281   -4.3954    3.3993 H         1 <1>         0.1221
     26 H2          5.6926   -2.2241    4.4173 H         1 <1>         0.1199
     27 H3          6.1370   -4.7185    0.9460 H         1 <1>         0.1204
     28 H4         -1.7385    2.1193   -0.6782 H         1 <1>         0.1208
     29 H5          4.8688   -0.3813    2.9991 H         1 <1>         0.1296
     30 H6          5.3155   -2.8856   -0.4870 H         1 <1>         0.1426
     31 H7          0.2531    0.5478   -1.4339 H         1 <1>         0.1305
     32 H8          2.6425   -0.2985    1.3150 H         1 <1>         0.1519
     33 H9         -0.9105    3.9507    1.0219 H         1 <1>         0.1733
     34 H10         6.8599    2.1540   -5.2977 H         1 <1>         0.0703
     35 H11         7.5012    2.5823   -3.6984 H         1 <1>         0.0848
     36 H12         7.3786    3.7759   -4.9632 H         1 <1>         0.0849
     37 H13         1.7787    3.4026   -2.0947 H         1 <1>         0.2709
     38 H14         2.7347    4.0943   -3.3779 H         1 <1>         0.2854
@<TRIPOS>BOND
     1    1    2 ar
     2    1    3 ar
     3    2    5 ar
     4    3    6 ar
     5    4    7 1
     6    4    9 2
     7    5   11 ar
     8    6   11 ar
     9    7   15 2
    10    8   12 ar
    11    8   14 ar
    12    9   24 1
    13   10   12 ar
    14   10   13 1
    15   10   17 ar
    16   11   14 1
    17   12   15 1
    18   13   16 2
    19   13   21 1
    20   14   20 ar
    21   15   24 1
    22   16   18 1
    23   16   23 1
    24   17   20 ar
    25   17   23 1
    26   18   19 1
    27   18   22 2
    28    1   25 1
    29    2   26 1
    30    3   27 1
    31    4   28 1
    32    5   29 1
    33    6   30 1
    34    7   31 1
    35    8   32 1
    36    9   33 1
    37   19   34 1
    38   19   35 1
    39   19   36 1
    40   21   37 1
    41   21   38 1
@<TRIPOS>Similarity
1.5463
@<TRIPOS>ShapeSim
0.9075
@<TRIPOS>PharmSim
0.6388
# END
# Name:		AH-487/40652383
# Created and modified by SHAFTS on Thu Jun  3 03:39:13 2010

# 

@<TRIPOS>MOLECULE
AH-487/40652383
   40    43     0
SMALL
USER_CHARGE


@<TRIPOS>ATOM
      1 C1          6.0825   -3.3468    2.4509 C.ar      1 <1>        -0.0991
      2 C2          6.3636   -3.1110    1.1051 C.ar      1 <1>        -0.0903
      3 C3          5.1464   -2.5557    3.1169 C.ar      1 <1>        -0.0896
      4 C4         -0.1119    3.4843    0.8856 C.ar      1 <1>        -0.0839
      5 C5          1.1288    2.8515    0.8109 C.ar      1 <1>        -0.0654
      6 C6          5.7086   -2.0841    0.4255 C.ar      1 <1>        -0.0521
      7 C7          4.4914   -1.5288    2.4371 C.ar      1 <1>        -0.0513
      8 C8         -1.1889    2.9975    0.1447 C.ar      1 <1>        -0.0761
      9 C9          0.2157    1.2450   -0.7456 C.ar      1 <1>        -0.0497
     10 C10         5.1220    2.1403   -2.6657 C.ar      1 <1>        -0.0239
     11 C11         3.6236    1.3582   -0.9811 C.ar      1 <1>         0.0501
     12 C12         1.2927    1.7319   -0.0047 C.ar      1 <1>        -0.0154
     13 C13         3.8789    2.2379   -2.0403 C.ar      1 <1>         0.0665
     14 C14         4.7725   -1.2930    1.0914 C.ar      1 <1>         0.0043
     15 C15        -1.0250    1.8780   -0.6709 C.ar      1 <1>        -0.0300
     16 C16         2.5757    1.0800   -0.0810 C.2       1 <1>         0.0511
     17 C17         6.0304    1.1894   -2.2126 C.ar      1 <1>        -0.0246
     18 C18         4.6177    0.4579   -0.6304 C.ar      1 <1>         0.0657
     19 C19         7.3586    1.0964   -2.8934 C.3       1 <1>         0.0068
     20 C20         2.9011    3.2575   -2.5235 C.3       1 <1>         0.3660
     21 N1          2.8716    0.0913    0.7692 N.2       1 <1>        -0.2721
     22 N2          5.8302    0.3182   -1.1942 N.ar      1 <1>        -0.3437
     23 N3          4.1180   -0.2667    0.4111 N.pl3     1 <1>        -0.2421
     24 F1          3.3638    4.0059   -3.5675 F         1 <1>        -0.1806
     25 F2          1.7253    2.7202   -2.9623 F         1 <1>        -0.1776
     26 F3          2.5567    4.1532   -1.5537 F         1 <1>        -0.1766
     27 Br1        -2.4845    1.2176   -1.6739 Br        1 <1>        -0.1067
     28 H1          6.5909   -4.1473    2.9801 H         1 <1>         0.1225
     29 H2          7.0915   -3.7276    0.5861 H         1 <1>         0.1284
     30 H3          4.9270   -2.7409    4.1645 H         1 <1>         0.1293
     31 H4         -0.2394    4.3557    1.5213 H         1 <1>         0.1343
     32 H5          1.9589    3.2432    1.3943 H         1 <1>         0.1489
     33 H6          5.9364   -1.9115   -0.6236 H         1 <1>         0.1369
     34 H7          3.7634   -0.9202    2.9681 H         1 <1>         0.1383
     35 H8         -2.1491    3.5022    0.2143 H         1 <1>         0.1411
     36 H9          0.3443    0.3712   -1.3815 H         1 <1>         0.1490
     37 H10         5.3760    2.7978   -3.4925 H         1 <1>         0.1550
     38 H11         8.0813    1.7581   -2.4037 H         1 <1>         0.0875
     39 H12         7.7455    0.0711   -2.8649 H         1 <1>         0.0849
     40 H13         7.2811    1.3809   -3.9494 H         1 <1>         0.0844
@<TRIPOS>BOND
     1    1    2 ar
     2    1    3 ar
     3    2    6 ar
     4    3    7 ar
     5    4    5 ar
     6    4    8 ar
     7    5   12 ar
     8    6   14 ar
     9    7   14 ar
    10    8   15 ar
    11    9   12 ar
    12    9   15 ar
    13   10   13 ar
    14   10   17 ar
    15   11   13 ar
    16   11   16 1
    17   11   18 ar
    18   12   16 1
    19   13   20 1
    20   14   23 1
    21   15   27 1
    22   16   21 2
    23   17   19 1
    24   17   22 ar
    25   18   22 ar
    26   18   23 1
    27   20   24 1
    28   20   25 1
    29   20   26 1
    30   21   23 1
    31    1   28 1
    32    2   29 1
    33    3   30 1
    34    4   31 1
    35    5   32 1
    36    6   33 1
    37    7   34 1
    38    8   35 1
    39    9   36 1
    40   10   37 1
    41   19   38 1
    42   19   39 1
    43   19   40 1
@<TRIPOS>Similarity
1.5456
@<TRIPOS>ShapeSim
0.9047
@<TRIPOS>PharmSim
0.6409
# END
# Name:		AN-989/42063253
# Created and modified by SHAFTS on Thu Jun  3 03:39:13 2010

# 

@<TRIPOS>MOLECULE
AN-989/42063253
   36    39     0
SMALL
USER_CHARGE


@<TRIPOS>ATOM
      1 C1          4.7238   -1.3553    2.1248 C.ar      1 <1>        -0.0682
      2 C2          6.0733   -2.1539    0.2868 C.ar      1 <1>        -0.0742
      3 C3          0.3739    1.0849   -0.4253 C.ar      1 <1>        -0.0612
      4 C4          1.3116    3.2595    0.0531 C.ar      1 <1>        -0.0648
      5 C5          5.1934   -2.3984    2.9228 C.ar      1 <1>        -0.0915
      6 C6          6.5428   -3.1971    1.0848 C.ar      1 <1>        -0.0948
      7 C7         -0.9085    1.5918   -0.2155 C.ar      1 <1>        -0.0380
      8 C8          0.0292    3.7664    0.2628 C.ar      1 <1>        -0.0383
      9 C9          4.5734    2.9189   -3.1017 C.2       1 <1>         0.0630
     10 C10         1.4840    1.9188   -0.2909 C.ar      1 <1>        -0.0202
     11 C11         5.1637   -1.2330    0.8068 C.ar      1 <1>        -0.0192
     12 C12         6.1029   -3.3193    2.4028 C.ar      1 <1>        -0.1123
     13 C13        -1.0809    2.9325    0.1286 C.ar      1 <1>         0.0699
     14 C14         4.9477    1.3603   -1.7467 C.2       1 <1>         0.1209
     15 C15         3.2819    0.3730    0.2554 C.2       1 <1>         0.0181
     16 C16         2.8396    1.3835   -0.5126 C.2       1 <1>         0.0365
     17 C17         4.6642   -0.1210   -0.0447 C.2       1 <1>         0.0277
     18 C18         6.6056   -4.4341    3.2570 C.3       1 <1>        -0.0398
     19 N1          5.5135    2.0076   -2.7455 N.2       1 <1>        -0.3084
     20 N2          3.4462    2.8954   -2.3972 N.2       1 <1>        -0.2993
     21 N3          5.4333    0.3373   -0.9901 N.2       1 <1>        -0.2935
     22 N4          3.6734    1.8852   -1.5180 N.pl3     1 <1>        -0.2242
     23 F1         -2.3124    3.4198    0.3284 F         1 <1>        -0.2601
     24 H1          4.0154   -0.6429    2.5396 H         1 <1>         0.1470
     25 H2          6.4228   -2.0685   -0.7388 H         1 <1>         0.1338
     26 H3          0.4924    0.0377   -0.6932 H         1 <1>         0.1666
     27 H4          2.1670    3.9222    0.1615 H         1 <1>         0.1495
     28 H5          4.8455   -2.4859    3.9486 H         1 <1>         0.1233
     29 H6          7.2518   -3.9099    0.6717 H         1 <1>         0.1230
     30 H7         -1.7730    0.9430   -0.3201 H         1 <1>         0.1376
     31 H8         -0.1053    4.8104    0.5304 H         1 <1>         0.1392
     32 H9          4.7123    3.6284   -3.9037 H         1 <1>         0.3126
     33 H10         2.7067   -0.0775    1.0556 H         1 <1>         0.1669
     34 H11         5.9547   -5.3117    3.1612 H         1 <1>         0.0603
     35 H12         7.6254   -4.7244    2.9734 H         1 <1>         0.0561
     36 H13         6.6412   -4.1407    4.3143 H         1 <1>         0.0563
@<TRIPOS>BOND
     1    1    5 ar
     2    1   11 ar
     3    2    6 ar
     4    2   11 ar
     5    3    7 ar
     6    3   10 ar
     7    4    8 ar
     8    4   10 ar
     9    5   12 ar
    10    6   12 ar
    11    7   13 ar
    12    8   13 ar
    13    9   19 1
    14    9   20 2
    15   10   16 1
    16   11   17 1
    17   12   18 1
    18   13   23 1
    19   14   19 2
    20   14   21 1
    21   14   22 1
    22   15   16 2
    23   15   17 1
    24   16   22 1
    25   17   21 2
    26   20   22 1
    27    1   24 1
    28    2   25 1
    29    3   26 1
    30    4   27 1
    31    5   28 1
    32    6   29 1
    33    7   30 1
    34    8   31 1
    35    9   32 1
    36   15   33 1
    37   18   34 1
    38   18   35 1
    39   18   36 1
@<TRIPOS>Similarity
1.5431
@<TRIPOS>ShapeSim
0.9474
@<TRIPOS>PharmSim
0.5957
# END
# Name:		AG-690/40750127
# Created and modified by SHAFTS on Thu Jun  3 03:39:13 2010

# 

@<TRIPOS>MOLECULE
AG-690/40750127
   42    44     0
SMALL
USER_CHARGE


@<TRIPOS>ATOM
      1 C1          2.9918    2.8977   -2.2045 C.1       1 <1>         0.0759
      2 C2          4.4911   -1.4321    2.3402 C.ar      1 <1>        -0.0780
      3 C3          5.8078   -2.1737    0.4553 C.ar      1 <1>        -0.0737
      4 C4          0.1864    1.0089   -0.2319 C.ar      1 <1>        -0.0756
      5 C5          1.1259    3.1900    0.2120 C.ar      1 <1>        -0.0742
      6 C6          5.0117   -2.4705    3.1124 C.ar      1 <1>        -0.0975
      7 C7          6.3286   -3.2121    1.2275 C.ar      1 <1>        -0.0952
      8 C8         -1.0936    1.5138   -0.0034 C.ar      1 <1>        -0.0662
      9 C9         -0.1540    3.6949    0.4405 C.ar      1 <1>        -0.0660
     10 C10         3.0774    0.2859    0.4464 C.ar      1 <1>        -0.0187
     11 C11         3.4457    1.8266   -1.3633 C.ar      1 <1>         0.1150
     12 C12         1.2963    1.8470   -0.1242 C.ar      1 <1>        -0.0528
     13 C13         4.8892   -1.2838    1.0116 C.ar      1 <1>        -0.0314
     14 C14         2.6241    1.3232   -0.3609 C.ar      1 <1>        -0.0070
     15 C15         5.9305   -3.3605    2.5562 C.ar      1 <1>        -0.1147
     16 C16        -1.2639    2.8568    0.3329 C.ar      1 <1>        -0.0111
     17 C17         4.3501   -0.2093    0.2124 C.ar      1 <1>        -0.0031
     18 C18         4.7020    1.2625   -1.5161 C.ar      1 <1>         0.0558
     19 C19         6.4869   -4.4708    3.3817 C.3       1 <1>        -0.0414
     20 C20         5.5972    1.4106   -5.4624 C.3       1 <1>        -0.0500
     21 C21         5.3642    0.7368   -4.1235 C.3       1 <1>        -0.0003
     22 N1          2.6249    3.7636   -2.8845 N.1       1 <1>        -0.3589
     23 N2          5.1771    0.2540   -0.7515 N.ar      1 <1>        -0.3600
     24 S1          5.8490    1.8291   -2.7714 S.3       1 <1>        -0.1271
     25 Cl1        -2.8435    3.4787    0.6163 Cl        1 <1>        -0.1373
     26 H1          3.7753   -0.7469    2.7881 H         1 <1>         0.1311
     27 H2          6.1285   -2.0709   -0.5787 H         1 <1>         0.1395
     28 H3          0.3030   -0.0402   -0.4931 H         1 <1>         0.1353
     29 H4          1.9813    3.8558    0.3006 H         1 <1>         0.1417
     30 H5          4.6951   -2.5792    4.1464 H         1 <1>         0.1208
     31 H6          7.0443   -3.9006    0.7861 H         1 <1>         0.1199
     32 H7         -1.9497    0.8491   -0.0889 H         1 <1>         0.1381
     33 H8         -0.2718    4.7433    0.7030 H         1 <1>         0.1386
     34 H9          2.4554   -0.1251    1.2369 H         1 <1>         0.1504
     35 H10         5.8576   -5.3648    3.2936 H         1 <1>         0.0590
     36 H11         7.5058   -4.7302    3.0660 H         1 <1>         0.0552
     37 H12         6.5449   -4.1891    4.4413 H         1 <1>         0.0550
     38 H13         5.0222    2.3386   -5.5510 H         1 <1>         0.0430
     39 H14         6.6566    1.6408   -5.6182 H         1 <1>         0.0524
     40 H15         5.2801    0.7468   -6.2737 H         1 <1>         0.0430
     41 H16         5.9473   -0.1866   -4.0571 H         1 <1>         0.0852
     42 H17         4.3069    0.4803   -4.0073 H         1 <1>         0.0852
@<TRIPOS>BOND
     1    1   11 1
     2    1   22 3
     3    2    6 ar
     4    2   13 ar
     5    3    7 ar
     6    3   13 ar
     7    4    8 ar
     8    4   12 ar
     9    5    9 ar
    10    5   12 ar
    11    6   15 ar
    12    7   15 ar
    13    8   16 ar
    14    9   16 ar
    15   10   14 ar
    16   10   17 ar
    17   11   14 ar
    18   11   18 ar
    19   12   14 1
    20   13   17 1
    21   15   19 1
    22   16   25 1
    23   17   23 ar
    24   18   23 ar
    25   18   24 1
    26   20   21 1
    27   21   24 1
    28    2   26 1
    29    3   27 1
    30    4   28 1
    31    5   29 1
    32    6   30 1
    33    7   31 1
    34    8   32 1
    35    9   33 1
    36   10   34 1
    37   19   35 1
    38   19   36 1
    39   19   37 1
    40   20   38 1
    41   20   39 1
    42   20   40 1
    43   21   41 1
    44   21   42 1
@<TRIPOS>Similarity
1.5413
@<TRIPOS>ShapeSim
0.9189
@<TRIPOS>PharmSim
0.6224
# END
# Name:		AG-205/36992102
# Created and modified by SHAFTS on Thu Jun  3 03:39:13 2010

# 

@<TRIPOS>MOLECULE
AG-205/36992102
   42    45     0
SMALL
USER_CHARGE


@<TRIPOS>ATOM
      1 C1          5.3332   -2.9390    3.0632 C.2       1 <1>        -0.1008
      2 C2          0.4642    0.9486   -0.3221 C.ar      1 <1>        -0.0745
      3 C3          1.4990    3.0915    0.0955 C.ar      1 <1>        -0.0752
      4 C4         -0.7962    1.5333   -0.1990 C.ar      1 <1>        -0.0419
      5 C5          0.2385    3.6762    0.2186 C.ar      1 <1>        -0.0421
      6 C6          4.6694   -1.7837    2.5582 C.2       1 <1>        -0.0813
      7 C7          3.3018    0.0935    0.5515 C.ar      1 <1>        -0.0158
      8 C8          6.1554   -3.5167    2.1210 C.2       1 <1>        -0.0420
      9 C9          3.8224    1.5602   -1.2896 C.ar      1 <1>         0.0174
     10 C10         1.6118    1.7276   -0.1748 C.ar      1 <1>        -0.0591
     11 C11         2.9166    1.1223   -0.3021 C.ar      1 <1>        -0.0368
     12 C12         3.7365    2.5718   -2.2993 C.2       1 <1>        -0.0326
     13 C13        -0.9090    2.8970    0.0714 C.ar      1 <1>         0.0666
     14 C14         4.5619   -0.4550    0.3909 C.ar      1 <1>         0.0168
     15 C15         5.0098   -1.5225    1.2490 C.2       1 <1>         0.0182
     16 C16         4.8819    2.6592   -3.0595 C.2       1 <1>         0.1305
     17 C17         5.0558    0.9189   -1.3374 C.ar      1 <1>         0.0681
     18 C18         5.1840    3.5319   -4.1503 C.2       1 <1>         0.1883
     19 C19         3.0988    3.8483   -6.5335 C.3       1 <1>        -0.0331
     20 C20         3.9995    4.8203   -5.8015 C.3       1 <1>         0.0277
     21 N1          5.4731   -0.0810   -0.5328 N.ar      1 <1>        -0.3393
     22 N2          2.6591    3.3697   -2.5063 N.pl3     1 <1>        -0.3968
     23 O1          6.2596    3.5454   -4.7921 O.2       1 <1>        -0.4535
     24 O2          4.1461    4.3887   -4.4444 O.3       1 <1>        -0.3479
     25 F1         -2.1194    3.4585    0.1895 F         1 <1>        -0.2634
     26 S1          6.1250   -2.6673    0.6344 S.3       1 <1>        -0.1148
     27 S2          6.0671    1.5294   -2.5673 S.3       1 <1>        -0.0214
     28 H1          5.2145   -3.3265    4.0667 H         1 <1>         0.1180
     29 H2          0.5356   -0.1159   -0.5328 H         1 <1>         0.1444
     30 H3          2.3841    3.7122    0.2129 H         1 <1>         0.1436
     31 H4         -1.6899    0.9269   -0.3134 H         1 <1>         0.1361
     32 H5          0.1500    4.7379    0.4288 H         1 <1>         0.1370
     33 H6          3.9791   -1.1792    3.1335 H         1 <1>         0.1386
     34 H7          2.6284   -0.2686    1.3242 H         1 <1>         0.1484
     35 H8          6.7728   -4.3966    2.2348 H         1 <1>         0.1740
     36 H9          3.5273    2.8421   -6.5317 H         1 <1>         0.0489
     37 H10         2.1093    3.8121   -6.0662 H         1 <1>         0.0489
     38 H11         2.9495    4.1668   -7.5705 H         1 <1>         0.0583
     39 H12         3.5652    5.8245   -5.8071 H         1 <1>         0.1008
     40 H13         4.9879    4.8546   -6.2692 H         1 <1>         0.1007
     41 H14         1.7935    3.2627   -1.9634 H         1 <1>         0.2751
     42 H15         2.6287    4.0498   -3.2755 H         1 <1>         0.2660
@<TRIPOS>BOND
     1    1    6 1
     2    1    8 2
     3    2    4 ar
     4    2   10 ar
     5    3    5 ar
     6    3   10 ar
     7    4   13 ar
     8    5   13 ar
     9    6   15 2
    10    7   11 ar
    11    7   14 ar
    12    8   26 1
    13    9   11 ar
    14    9   12 1
    15    9   17 ar
    16   10   11 1
    17   12   16 2
    18   12   22 1
    19   13   25 1
    20   14   15 1
    21   14   21 ar
    22   15   26 1
    23   16   18 1
    24   16   27 1
    25   17   21 ar
    26   17   27 1
    27   18   23 2
    28   18   24 1
    29   19   20 1
    30   20   24 1
    31    1   28 1
    32    2   29 1
    33    3   30 1
    34    4   31 1
    35    5   32 1
    36    6   33 1
    37    7   34 1
    38    8   35 1
    39   19   36 1
    40   19   37 1
    41   19   38 1
    42   20   39 1
    43   20   40 1
    44   22   41 1
    45   22   42 1
@<TRIPOS>Similarity
1.5411
@<TRIPOS>ShapeSim
0.9068
@<TRIPOS>PharmSim
0.6343
# END
# Name:		AG-205/33140043
# Created and modified by SHAFTS on Thu Jun  3 03:39:13 2010

# 

@<TRIPOS>MOLECULE
AG-205/33140043
   49    53     0
SMALL
USER_CHARGE


@<TRIPOS>ATOM
      1 C1          5.9421   -3.5737    2.7705 C.ar      1 <1>        -0.1029
      2 C2          5.5822   -2.3547    3.3451 C.ar      1 <1>        -0.0991
      3 C3          5.8348   -3.7534    1.3914 C.ar      1 <1>        -0.0960
      4 C4          5.1149   -1.3155    2.5406 C.ar      1 <1>        -0.0785
      5 C5          5.3674   -2.7141    0.5869 C.ar      1 <1>        -0.0731
      6 C6          0.3817    0.9184   -0.2512 C.ar      1 <1>        -0.0778
      7 C7          1.3866    3.0732    0.1781 C.ar      1 <1>        -0.0864
      8 C8         -0.8857    1.4764   -0.0848 C.ar      1 <1>        -0.0531
      9 C9          0.1191    3.6311    0.3445 C.ar      1 <1>        -0.0652
     10 C10         3.2578    0.1031    0.5319 C.ar      1 <1>        -0.0240
     11 C11         3.7009    1.6124   -1.2950 C.ar      1 <1>         0.0113
     12 C12         1.5179    1.7169   -0.1199 C.ar      1 <1>        -0.0649
     13 C13         5.0075   -1.4951    1.1615 C.ar      1 <1>        -0.0285
     14 C14         2.8303    1.1393   -0.2922 C.ar      1 <1>        -0.0439
     15 C15         3.5689    2.6400   -2.2833 C.2       1 <1>        -0.0472
     16 C16        -1.0171    2.8327    0.2131 C.ar      1 <1>        -0.0117
     17 C17         4.5233   -0.4177    0.3281 C.ar      1 <1>         0.0036
     18 C18         4.6917    2.7633   -3.0717 C.2       1 <1>         0.0761
     19 C19         4.9446    0.9962   -1.3870 C.ar      1 <1>         0.0558
     20 C20         4.9482    3.6609   -4.1537 C.2       1 <1>         0.0672
     21 C21         3.4073    5.5853   -4.9742 C.3       1 <1>        -0.0527
     22 C22         4.0394    4.9854   -6.1959 C.3       1 <1>        -0.0530
     23 C23         3.7783    4.1314   -4.9899 C.3       1 <1>         0.0093
     24 C24        -2.3159    4.7699    0.6782 C.3       1 <1>         0.0253
     25 N1          5.4022   -0.0096   -0.6122 N.ar      1 <1>        -0.3501
     26 N2          2.4714    3.4203   -2.4475 N.pl3     1 <1>        -0.3984
     27 O1          6.0657    4.1023   -4.4892 O.2       1 <1>        -0.4769
     28 O2         -2.2539    3.3770    0.3748 O.3       1 <1>        -0.4154
     29 S1          5.9109    1.6483   -2.6317 S.3       1 <1>        -0.0489
     30 H1          6.3075   -4.3821    3.3968 H         1 <1>         0.1220
     31 H2          5.6673   -2.2140    4.4187 H         1 <1>         0.1197
     32 H3          6.1162   -4.7018    0.9431 H         1 <1>         0.1201
     33 H4          4.8385   -0.3710    3.0037 H         1 <1>         0.1292
     34 H5          5.2898   -2.8686   -0.4866 H         1 <1>         0.1409
     35 H6          0.4678   -0.1404   -0.4833 H         1 <1>         0.1420
     36 H7          2.2627    3.7087    0.2837 H         1 <1>         0.1373
     37 H8         -1.7672    0.8494   -0.1886 H         1 <1>         0.1333
     38 H9          0.0228    4.6884    0.5763 H         1 <1>         0.1159
     39 H10         2.6124   -0.2859    1.3152 H         1 <1>         0.1454
     40 H11         4.0098    6.2556   -4.3734 H         1 <1>         0.0673
     41 H12         2.3596    5.8547   -5.0306 H         1 <1>         0.0663
     42 H13         3.4156    4.8549   -7.0718 H         1 <1>         0.0672
     43 H14         5.0669    5.2501   -6.4138 H         1 <1>         0.0652
     44 H15         2.9613    3.4216   -5.0625 H         1 <1>         0.0822
     45 H16        -3.3602    5.0749    0.7814 H         1 <1>         0.1236
     46 H17        -1.8362    5.3395   -0.1216 H         1 <1>         0.0905
     47 H18        -1.7906    4.9526    1.6186 H         1 <1>         0.0906
     48 H19         1.6227    3.2870   -1.8842 H         1 <1>         0.2666
     49 H20         2.4079    4.1134   -3.2031 H         1 <1>         0.2735
@<TRIPOS>BOND
     1    1    2 ar
     2    1    3 ar
     3    2    4 ar
     4    3    5 ar
     5    4   13 ar
     6    5   13 ar
     7    6    8 ar
     8    6   12 ar
     9    7    9 ar
    10    7   12 ar
    11    8   16 ar
    12    9   16 ar
    13   10   14 ar
    14   10   17 ar
    15   11   14 ar
    16   11   15 1
    17   11   19 ar
    18   12   14 1
    19   13   17 1
    20   15   18 2
    21   15   26 1
    22   16   28 1
    23   17   25 ar
    24   18   20 1
    25   18   29 1
    26   19   25 ar
    27   19   29 1
    28   20   23 1
    29   20   27 2
    30   21   22 1
    31   21   23 1
    32   22   23 1
    33   24   28 1
    34    1   30 1
    35    2   31 1
    36    3   32 1
    37    4   33 1
    38    5   34 1
    39    6   35 1
    40    7   36 1
    41    8   37 1
    42    9   38 1
    43   10   39 1
    44   21   40 1
    45   21   41 1
    46   22   42 1
    47   22   43 1
    48   23   44 1
    49   24   45 1
    50   24   46 1
    51   24   47 1
    52   26   48 1
    53   26   49 1
@<TRIPOS>Similarity
1.5407
@<TRIPOS>ShapeSim
0.8979
@<TRIPOS>PharmSim
0.6428
# END
# Name:		AG-205/33125019
# Created and modified by SHAFTS on Thu Jun  3 03:39:13 2010

# 

@<TRIPOS>MOLECULE
AG-205/33125019
   40    42     0
SMALL
USER_CHARGE


@<TRIPOS>ATOM
      1 C1          3.0414    2.8445   -2.1782 C.1       1 <1>         0.0763
      2 C2          5.9458   -3.4140    2.6033 C.ar      1 <1>        -0.1028
      3 C3          5.5702   -2.2132    3.2056 C.ar      1 <1>        -0.0988
      4 C4          5.8062   -3.5764    1.2249 C.ar      1 <1>        -0.0965
      5 C5          5.0551   -1.1750    2.4296 C.ar      1 <1>        -0.0791
      6 C6          5.2910   -2.5381    0.4489 C.ar      1 <1>        -0.0748
      7 C7          0.2242    0.9678   -0.2112 C.ar      1 <1>        -0.0748
      8 C8          1.1690    3.1470    0.2314 C.ar      1 <1>        -0.0734
      9 C9         -1.0550    1.4771    0.0119 C.ar      1 <1>        -0.0740
     10 C10        -0.1103    3.6563    0.4544 C.ar      1 <1>        -0.0737
     11 C11         3.1105    0.2370    0.4776 C.ar      1 <1>        -0.0179
     12 C12         3.4893    1.7733   -1.3336 C.ar      1 <1>         0.1156
     13 C13         1.3363    1.8028   -0.1014 C.ar      1 <1>        -0.0514
     14 C14         4.9154   -1.3375    1.0512 C.ar      1 <1>        -0.0318
     15 C15         2.6629    1.2743   -0.3329 C.ar      1 <1>        -0.0054
     16 C16        -1.2222    2.8214    0.3447 C.ar      1 <1>        -0.0363
     17 C17         4.3824   -0.2626    0.2485 C.ar      1 <1>        -0.0025
     18 C18         4.7443    1.2051   -1.4816 C.ar      1 <1>         0.0588
     19 C19         8.8907    0.0137   -4.1829 C.2       1 <1>        -0.1272
     20 C20         8.4034    0.9173   -3.3250 C.2       1 <1>        -0.1221
     21 C21         7.2713    0.6493   -2.3862 C.3       1 <1>         0.0145
     22 N1          2.6794    3.7104   -2.8607 N.1       1 <1>        -0.3580
     23 N2          5.2138    0.1964   -0.7137 N.ar      1 <1>        -0.3596
     24 S1          5.8971    1.7659   -2.7341 S.3       1 <1>        -0.1152
     25 Br1        -2.9553    3.5123    0.6462 Br        1 <1>        -0.1051
     26 H1          6.3485   -4.2216    3.2075 H         1 <1>         0.1220
     27 H2          5.6804   -2.0860    4.2785 H         1 <1>         0.1203
     28 H3          6.0997   -4.5106    0.7551 H         1 <1>         0.1194
     29 H4          4.7671   -0.2448    2.9139 H         1 <1>         0.1297
     30 H5          5.1885   -2.6791   -0.6244 H         1 <1>         0.1381
     31 H6          0.3384   -0.0822   -0.4698 H         1 <1>         0.1345
     32 H7          2.0258    3.8106    0.3199 H         1 <1>         0.1410
     33 H8         -1.9111    0.8134   -0.0783 H         1 <1>         0.1397
     34 H9         -0.2233    4.7058    0.7130 H         1 <1>         0.1403
     35 H10         2.4846   -0.1706    1.2668 H         1 <1>         0.1514
     36 H11         9.7143    0.2486   -4.8479 H         1 <1>         0.0919
     37 H12         8.4657   -0.9830   -4.2309 H         1 <1>         0.0874
     38 H13         8.8390    1.9138   -3.3216 H         1 <1>         0.0992
     39 H14         7.5686    0.7781   -1.3405 H         1 <1>         0.0982
     40 H15         6.9281   -0.3823   -2.5114 H         1 <1>         0.1020
@<TRIPOS>BOND
     1    1   12 1
     2    1   22 3
     3    2    3 ar
     4    2    4 ar
     5    3    5 ar
     6    4    6 ar
     7    5   14 ar
     8    6   14 ar
     9    7    9 ar
    10    7   13 ar
    11    8   10 ar
    12    8   13 ar
    13    9   16 ar
    14   10   16 ar
    15   11   15 ar
    16   11   17 ar
    17   12   15 ar
    18   12   18 ar
    19   13   15 1
    20   14   17 1
    21   16   25 1
    22   17   23 ar
    23   18   23 ar
    24   18   24 1
    25   19   20 2
    26   20   21 1
    27   21   24 1
    28    2   26 1
    29    3   27 1
    30    4   28 1
    31    5   29 1
    32    6   30 1
    33    7   31 1
    34    8   32 1
    35    9   33 1
    36   10   34 1
    37   11   35 1
    38   19   36 1
    39   19   37 1
    40   20   38 1
    41   21   39 1
    42   21   40 1
@<TRIPOS>Similarity
1.5407
@<TRIPOS>ShapeSim
0.9150
@<TRIPOS>PharmSim
0.6256
# END
# Name:		AH-357/03542020
# Created and modified by SHAFTS on Thu Jun  3 03:39:13 2010

# 

@<TRIPOS>MOLECULE
AH-357/03542020
   30    32     0
SMALL
USER_CHARGE


@<TRIPOS>ATOM
      1 C1         -1.2485    3.0151    0.1601 C.ar      1 <1>        -0.1068
      2 C2          6.1127   -3.4098    2.4979 C.ar      1 <1>        -0.1068
      3 C3         -0.1463    3.7378   -0.2965 C.ar      1 <1>        -0.1004
      4 C4         -1.1031    1.6760    0.5224 C.ar      1 <1>        -0.1048
      5 C5          6.4096   -3.1852    1.1536 C.ar      1 <1>        -0.1049
      6 C6          5.1785   -2.6047    3.1497 C.ar      1 <1>        -0.1003
      7 C7          1.1014    3.1213   -0.3908 C.ar      1 <1>        -0.0818
      8 C8          0.1446    1.0594    0.4281 C.ar      1 <1>        -0.0891
      9 C9          5.7723   -2.1556    0.4613 C.ar      1 <1>        -0.0891
     10 C10         4.5412   -1.5751    2.4574 C.ar      1 <1>        -0.0817
     11 C11         3.5834    1.3865   -0.9882 C.2       1 <1>        -0.0895
     12 C12         4.6217    0.4811   -0.6580 C.2       1 <1>        -0.0895
     13 C13         1.2469    1.7821   -0.0286 C.ar      1 <1>        -0.0627
     14 C14         4.8381   -1.3505    1.1131 C.ar      1 <1>        -0.0627
     15 C15         2.5372    1.1451   -0.1253 C.2       1 <1>        -0.0650
     16 C16         4.1785   -0.2863    0.3967 C.2       1 <1>        -0.0650
     17 N1          2.9100    0.1260    0.7119 N.pl3     1 <1>        -0.3647
     18 H1         -2.2198    3.4953    0.2342 H         1 <1>         0.1153
     19 H2          6.6085   -4.2118    3.0368 H         1 <1>         0.1153
     20 H3         -0.2599    4.7804   -0.5788 H         1 <1>         0.1208
     21 H4         -1.9611    1.1136    0.8791 H         1 <1>         0.1173
     22 H5          7.1372   -3.8119    0.6464 H         1 <1>         0.1174
     23 H6          4.9464   -2.7804    4.1963 H         1 <1>         0.1208
     24 H7          1.9515    3.6989   -0.7461 H         1 <1>         0.1285
     25 H8          0.2414    0.0146    0.7134 H         1 <1>         0.1113
     26 H9          6.0127   -1.9948   -0.5870 H         1 <1>         0.1112
     27 H10         3.8162   -0.9557    2.9800 H         1 <1>         0.1285
     28 H11         3.6019    2.1323   -1.7714 H         1 <1>         0.1225
     29 H12         5.5863    0.4013   -1.1407 H         1 <1>         0.1225
     30 H13         2.3367   -0.2622    1.4490 H         1 <1>         0.3335
@<TRIPOS>BOND
     1    1    3 ar
     2    1    4 ar
     3    2    5 ar
     4    2    6 ar
     5    3    7 ar
     6    4    8 ar
     7    5    9 ar
     8    6   10 ar
     9    7   13 ar
    10    8   13 ar
    11    9   14 ar
    12   10   14 ar
    13   11   12 1
    14   11   15 2
    15   12   16 2
    16   13   15 1
    17   14   16 1
    18   15   17 1
    19   16   17 1
    20    1   18 1
    21    2   19 1
    22    3   20 1
    23    4   21 1
    24    5   22 1
    25    6   23 1
    26    7   24 1
    27    8   25 1
    28    9   26 1
    29   10   27 1
    30   11   28 1
    31   12   29 1
    32   17   30 1
@<TRIPOS>Similarity
1.5404
@<TRIPOS>ShapeSim
0.8699
@<TRIPOS>PharmSim
0.6705
# END
# Name:		AG-690/40749447
# Created and modified by SHAFTS on Thu Jun  3 03:39:13 2010

# 

@<TRIPOS>MOLECULE
AG-690/40749447
   37    39     0
SMALL
USER_CHARGE


@<TRIPOS>ATOM
      1 C1          3.0418    2.8445   -2.1782 C.1       1 <1>         0.0773
      2 C2          7.9219    2.5079   -1.0819 C.1       1 <1>         0.0370
      3 C3          5.9457   -3.4140    2.6033 C.ar      1 <1>        -0.1024
      4 C4          5.5700   -2.2133    3.2056 C.ar      1 <1>        -0.0962
      5 C5          5.8063   -3.5764    1.2250 C.ar      1 <1>        -0.0985
      6 C6          5.0548   -1.1750    2.4296 C.ar      1 <1>        -0.0746
      7 C7          5.2911   -2.5381    0.4490 C.ar      1 <1>        -0.0789
      8 C8          0.2240    0.9679   -0.2117 C.ar      1 <1>        -0.0741
      9 C9          1.1689    3.1468    0.2316 C.ar      1 <1>        -0.0756
     10 C10        -1.0552    1.4772    0.0118 C.ar      1 <1>        -0.0656
     11 C11        -0.1102    3.6561    0.4551 C.ar      1 <1>        -0.0659
     12 C12         3.1105    0.2370    0.4774 C.ar      1 <1>        -0.0156
     13 C13         3.4895    1.7735   -1.3337 C.ar      1 <1>         0.1181
     14 C14         1.3361    1.8027   -0.1017 C.ar      1 <1>        -0.0522
     15 C15         4.9154   -1.3374    1.0513 C.ar      1 <1>        -0.0312
     16 C16         2.6631    1.2743   -0.3331 C.ar      1 <1>        -0.0044
     17 C17        -1.2223    2.8213    0.3453 C.ar      1 <1>        -0.0105
     18 C18         4.3824   -0.2626    0.2485 C.ar      1 <1>        -0.0013
     19 C19         4.7446    1.2052   -1.4814 C.ar      1 <1>         0.0710
     20 C20         6.7562    3.0415   -1.7894 C.3       1 <1>         0.1445
     21 N1          2.6798    3.7104   -2.8608 N.1       1 <1>        -0.3556
     22 N2          8.8467    2.0903   -0.5187 N.1       1 <1>        -0.3767
     23 N3          5.2140    0.1965   -0.7135 N.ar      1 <1>        -0.3585
     24 S1          5.8975    1.7661   -2.7339 S.3       1 <1>        -0.0608
     25 Cl1        -2.8009    3.4486    0.6225 Cl        1 <1>        -0.1364
     26 H1          6.3483   -4.2216    3.2075 H         1 <1>         0.1222
     27 H2          5.6800   -2.0860    4.2786 H         1 <1>         0.1199
     28 H3          6.0999   -4.5105    0.7551 H         1 <1>         0.1205
     29 H4          4.7667   -0.2449    2.9140 H         1 <1>         0.1390
     30 H5          5.1888   -2.6790   -0.6244 H         1 <1>         0.1301
     31 H6          0.3381   -0.0820   -0.4706 H         1 <1>         0.1424
     32 H7          2.0261    3.8101    0.3220 H         1 <1>         0.1357
     33 H8         -1.9130    0.8151   -0.0753 H         1 <1>         0.1390
     34 H9         -0.2255    4.7054    0.7154 H         1 <1>         0.1384
     35 H10         2.4846   -0.1707    1.2665 H         1 <1>         0.1541
     36 H11         7.0605    3.8348   -2.4787 H         1 <1>         0.1732
     37 H12         6.0482    3.4750   -1.0765 H         1 <1>         0.1732
@<TRIPOS>BOND
     1    1   13 1
     2    1   21 3
     3    2   20 1
     4    2   22 3
     5    3    4 ar
     6    3    5 ar
     7    4    6 ar
     8    5    7 ar
     9    6   15 ar
    10    7   15 ar
    11    8   10 ar
    12    8   14 ar
    13    9   11 ar
    14    9   14 ar
    15   10   17 ar
    16   11   17 ar
    17   12   16 ar
    18   12   18 ar
    19   13   16 ar
    20   13   19 ar
    21   14   16 1
    22   15   18 1
    23   17   25 1
    24   18   23 ar
    25   19   23 ar
    26   19   24 1
    27   20   24 1
    28    3   26 1
    29    4   27 1
    30    5   28 1
    31    6   29 1
    32    7   30 1
    33    8   31 1
    34    9   32 1
    35   10   33 1
    36   11   34 1
    37   12   35 1
    38   20   36 1
    39   20   37 1
@<TRIPOS>Similarity
1.5396
@<TRIPOS>ShapeSim
0.9138
@<TRIPOS>PharmSim
0.6257
# END
# Name:		AG-690/36427043
# Created and modified by SHAFTS on Thu Jun  3 03:39:13 2010

# 

@<TRIPOS>MOLECULE
AG-690/36427043
   39    41     0
SMALL
USER_CHARGE


@<TRIPOS>ATOM
      1 C1          3.0414    2.8443   -2.1783 C.1       1 <1>         0.0760
      2 C2         -1.2224    2.8213    0.3447 C.ar      1 <1>        -0.1020
      3 C3          5.9459   -3.4140    2.6033 C.ar      1 <1>        -0.1032
      4 C4         -1.0550    1.4771    0.0119 C.ar      1 <1>        -0.0988
      5 C5         -0.1104    3.6564    0.4543 C.ar      1 <1>        -0.0989
      6 C6          5.5704   -2.2132    3.2056 C.ar      1 <1>        -0.0992
      7 C7          5.8061   -3.5765    1.2250 C.ar      1 <1>        -0.0969
      8 C8          0.2242    0.9679   -0.2110 C.ar      1 <1>        -0.0867
      9 C9          1.1688    3.1471    0.2313 C.ar      1 <1>        -0.0879
     10 C10         5.0552   -1.1749    2.4295 C.ar      1 <1>        -0.0792
     11 C11         5.2909   -2.5383    0.4489 C.ar      1 <1>        -0.0749
     12 C12         3.1105    0.2370    0.4776 C.ar      1 <1>        -0.0191
     13 C13         3.4893    1.7733   -1.3337 C.ar      1 <1>         0.1151
     14 C14         1.3363    1.8029   -0.1013 C.ar      1 <1>        -0.0600
     15 C15         4.9154   -1.3375    1.0513 C.ar      1 <1>        -0.0322
     16 C16         2.6630    1.2744   -0.3329 C.ar      1 <1>        -0.0086
     17 C17         4.3824   -0.2627    0.2485 C.ar      1 <1>        -0.0034
     18 C18         4.7443    1.2049   -1.4817 C.ar      1 <1>         0.0552
     19 C19         4.3233    1.3128   -4.9250 C.3       1 <1>        -0.0500
     20 C20         5.4127    0.6724   -4.0861 C.3       1 <1>        -0.0006
     21 N1          2.6794    3.7101   -2.8609 N.1       1 <1>        -0.3599
     22 N2          5.2138    0.1962   -0.7138 N.ar      1 <1>        -0.3609
     23 S1          5.8969    1.7656   -2.7344 S.3       1 <1>        -0.1280
     24 H1         -2.2187    3.2179    0.5165 H         1 <1>         0.1223
     25 H2          6.3486   -4.2216    3.2075 H         1 <1>         0.1215
     26 H3         -1.9208    0.8272   -0.0751 H         1 <1>         0.1218
     27 H4         -0.2402    4.7034    0.7119 H         1 <1>         0.1213
     28 H5          5.6807   -2.0859    4.2785 H         1 <1>         0.1199
     29 H6          6.0996   -4.5107    0.7552 H         1 <1>         0.1190
     30 H7          0.3382   -0.0822   -0.4698 H         1 <1>         0.1291
     31 H8          2.0262    3.8102    0.3199 H         1 <1>         0.1231
     32 H9          4.7672   -0.2448    2.9139 H         1 <1>         0.1296
     33 H10         5.1883   -2.6793   -0.6244 H         1 <1>         0.1380
     34 H11         2.4847   -0.1706    1.2668 H         1 <1>         0.1499
     35 H12         3.4318    1.5314   -4.3274 H         1 <1>         0.0430
     36 H13         4.6676    2.2427   -5.3901 H         1 <1>         0.0430
     37 H14         4.0234    0.6321   -5.7288 H         1 <1>         0.0523
     38 H15         6.2922    0.4630   -4.7025 H         1 <1>         0.0850
     39 H16         5.0597   -0.2737   -3.6647 H         1 <1>         0.0850
@<TRIPOS>BOND
     1    1   13 1
     2    1   21 3
     3    2    4 ar
     4    2    5 ar
     5    3    6 ar
     6    3    7 ar
     7    4    8 ar
     8    5    9 ar
     9    6   10 ar
    10    7   11 ar
    11    8   14 ar
    12    9   14 ar
    13   10   15 ar
    14   11   15 ar
    15   12   16 ar
    16   12   17 ar
    17   13   16 ar
    18   13   18 ar
    19   14   16 1
    20   15   17 1
    21   17   22 ar
    22   18   22 ar
    23   18   23 1
    24   19   20 1
    25   20   23 1
    26    2   24 1
    27    3   25 1
    28    4   26 1
    29    5   27 1
    30    6   28 1
    31    7   29 1
    32    8   30 1
    33    9   31 1
    34   10   32 1
    35   11   33 1
    36   12   34 1
    37   19   35 1
    38   19   36 1
    39   19   37 1
    40   20   38 1
    41   20   39 1
@<TRIPOS>Similarity
1.5394
@<TRIPOS>ShapeSim
0.9230
@<TRIPOS>PharmSim
0.6164
# END
# Name:		AE-641/00376063
# Created and modified by SHAFTS on Thu Jun  3 03:39:13 2010

# 

@<TRIPOS>MOLECULE
AE-641/00376063
   31    33     0
SMALL
USER_CHARGE


@<TRIPOS>ATOM
      1 C1         -1.1837    3.0025    0.1336 C.ar      1 <1>        -0.1063
      2 C2          6.0854   -3.3456    2.4469 C.ar      1 <1>        -0.1010
      3 C3         -0.0628    3.7021   -0.3131 C.ar      1 <1>        -0.1000
      4 C4         -1.0655    1.6657    0.5141 C.ar      1 <1>        -0.0999
      5 C5          5.8419   -3.4582    1.0780 C.ar      1 <1>        -0.0904
      6 C6          5.6731   -2.2058    3.1371 C.ar      1 <1>        -0.0957
      7 C7          1.1763    3.0650   -0.3795 C.ar      1 <1>        -0.0756
      8 C8          0.1736    1.0286    0.4477 C.ar      1 <1>        -0.0760
      9 C9          5.1861   -2.4310    0.3995 C.ar      1 <1>        -0.0519
     10 C10         5.0174   -1.1785    2.4587 C.ar      1 <1>        -0.0598
     11 C11         3.6120    1.3510   -0.9720 C.2       1 <1>        -0.0251
     12 C12         1.2945    1.7282    0.0009 C.ar      1 <1>        -0.0346
     13 C13         4.7739   -1.2911    1.0898 C.ar      1 <1>        -0.0064
     14 C14         2.5700    1.0720   -0.0675 C.2       1 <1>         0.0021
     15 C15         4.6057    0.4647   -0.6351 C.2       1 <1>        -0.0238
     16 N1          2.8735    0.0854    0.7803 N.2       1 <1>        -0.3207
     17 N2          4.1174   -0.2632    0.4098 N.pl3     1 <1>        -0.2773
     18 N3          5.8372    0.2584   -1.1486 N.pl3     1 <1>        -0.3876
     19 H1         -2.1483    3.4987    0.1864 H         1 <1>         0.1167
     20 H2          6.5943   -4.1459    2.9759 H         1 <1>         0.1198
     21 H3         -0.1542    4.7433   -0.6082 H         1 <1>         0.1170
     22 H4         -1.9382    1.1215    0.8630 H         1 <1>         0.1177
     23 H5          6.1616   -4.3462    0.5406 H         1 <1>         0.1291
     24 H6          5.8620   -2.1195    4.2034 H         1 <1>         0.1283
     25 H7          2.0409    3.6241   -0.7300 H         1 <1>         0.1309
     26 H8          0.2490   -0.0140    0.7479 H         1 <1>         0.1298
     27 H9          5.0018   -2.5318   -0.6673 H         1 <1>         0.1377
     28 H10         4.7008   -0.2959    3.0091 H         1 <1>         0.1258
     29 H11         3.6419    2.0908   -1.7594 H         1 <1>         0.1154
     30 H12         6.1829    0.7774   -1.9692 H         1 <1>         0.2731
     31 H13         6.4552   -0.4918   -0.8057 H         1 <1>         0.2887
@<TRIPOS>BOND
     1    1    3 ar
     2    1    4 ar
     3    2    5 ar
     4    2    6 ar
     5    3    7 ar
     6    4    8 ar
     7    5    9 ar
     8    6   10 ar
     9    7   12 ar
    10    8   12 ar
    11    9   13 ar
    12   10   13 ar
    13   11   14 1
    14   11   15 2
    15   12   14 1
    16   13   17 1
    17   14   16 2
    18   15   17 1
    19   15   18 1
    20   16   17 1
    21    1   19 1
    22    2   20 1
    23    3   21 1
    24    4   22 1
    25    5   23 1
    26    6   24 1
    27    7   25 1
    28    8   26 1
    29    9   27 1
    30   10   28 1
    31   11   29 1
    32   18   30 1
    33   18   31 1
@<TRIPOS>Similarity
1.5381
@<TRIPOS>ShapeSim
0.8905
@<TRIPOS>PharmSim
0.6476
# END
# Name:		AO-476/43201397
# Created and modified by SHAFTS on Thu Jun  3 03:39:13 2010

# 

@<TRIPOS>MOLECULE
AO-476/43201397
   44    48     0
SMALL
USER_CHARGE


@<TRIPOS>ATOM
      1 C1          0.3153   -0.8889    3.1060 C.ar      1 <1>        -0.0965
      2 C2         -1.4775    2.5487    0.7911 C.ar      1 <1>        -0.0991
      3 C3          5.9565   -3.4533    2.6359 C.ar      1 <1>        -0.0949
      4 C4          0.3679   -1.4968    1.8517 C.ar      1 <1>        -0.0907
      5 C5          1.2435    0.0964    3.4429 C.ar      1 <1>        -0.0941
      6 C6         -0.3991    3.3121    1.2382 C.ar      1 <1>        -0.0943
      7 C7         -1.3128    1.6675   -0.2775 C.ar      1 <1>        -0.0929
      8 C8          5.5705   -2.2468    3.2198 C.ar      1 <1>        -0.0876
      9 C9          5.8654   -3.6201    1.2540 C.ar      1 <1>        -0.0858
     10 C10         1.3487   -1.1196    0.9344 C.ar      1 <1>        -0.0726
     11 C11         2.2242    0.4737    2.5257 C.ar      1 <1>        -0.0769
     12 C12         0.8441    3.1943    0.6166 C.ar      1 <1>        -0.0708
     13 C13        -0.0697    1.5497   -0.8991 C.ar      1 <1>        -0.0701
     14 C14         5.0933   -1.2071    2.4218 C.ar      1 <1>        -0.0529
     15 C15         5.3883   -2.5802    0.4560 C.ar      1 <1>        -0.0497
     16 C16         2.2769   -0.1342    1.2714 C.ar      1 <1>        -0.0277
     17 C17         1.0088    2.3131   -0.4520 C.ar      1 <1>        -0.0120
     18 C18         3.2930    1.2267   -0.6501 C.2       1 <1>         0.0624
     19 C19         5.0023   -1.3738    1.0399 C.ar      1 <1>         0.0047
     20 C20         3.2932    0.2575    0.3198 C.2       1 <1>         0.0341
     21 C21         4.5511    1.1226   -1.2716 C.2       1 <1>         0.0959
     22 C22         2.3241    2.1885   -1.1098 C.2       1 <1>         0.0493
     23 C23         4.8582    1.9854   -2.3787 C.2       1 <1>         0.0287
     24 N1          5.3159    0.1737   -0.7238 N.2       1 <1>        -0.2591
     25 N2          2.6111    2.9489   -2.1299 N.2       1 <1>        -0.3008
     26 N3          4.5245   -0.3322    0.2415 N.pl3     1 <1>        -0.2507
     27 N4          3.8411    2.8497   -2.7430 N.pl3     1 <1>        -0.2597
     28 S1          6.3337    1.9118   -3.1394 S.2       1 <1>        -0.2881
     29 H1         -0.4488   -1.1822    3.8199 H         1 <1>         0.1264
     30 H2         -2.4453    2.6405    1.2751 H         1 <1>         0.1237
     31 H3          6.3298   -4.2626    3.2566 H         1 <1>         0.1283
     32 H4         -0.3547   -2.2641    1.5896 H         1 <1>         0.1259
     33 H5          1.2017    0.5706    4.4193 H         1 <1>         0.1240
     34 H6         -0.5276    3.9984    2.0701 H         1 <1>         0.1215
     35 H7         -2.1524    1.0729   -0.6254 H         1 <1>         0.1217
     36 H8          5.6426   -2.1163    4.2956 H         1 <1>         0.1319
     37 H9          6.1676   -4.5595    0.7999 H         1 <1>         0.1327
     38 H10         1.3749   -1.6010   -0.0403 H         1 <1>         0.1330
     39 H11         2.9411    1.2425    2.8039 H         1 <1>         0.1268
     40 H12         1.6777    3.7939    0.9731 H         1 <1>         0.1340
     41 H13         0.0471    0.8599   -1.7310 H         1 <1>         0.1310
     42 H14         4.7965   -0.2714    2.8895 H         1 <1>         0.1373
     43 H15         5.3233   -2.7234   -0.6199 H         1 <1>         0.1442
     44 H16         3.9673    3.4907   -3.5201 H         1 <1>         0.4093
@<TRIPOS>BOND
     1    1    4 ar
     2    1    5 ar
     3    2    6 ar
     4    2    7 ar
     5    3    8 ar
     6    3    9 ar
     7    4   10 ar
     8    5   11 ar
     9    6   12 ar
    10    7   13 ar
    11    8   14 ar
    12    9   15 ar
    13   10   16 ar
    14   11   16 ar
    15   12   17 ar
    16   13   17 ar
    17   14   19 ar
    18   15   19 ar
    19   16   20 1
    20   17   22 1
    21   18   20 2
    22   18   21 1
    23   18   22 1
    24   19   26 1
    25   20   26 1
    26   21   23 1
    27   21   24 2
    28   22   25 2
    29   23   27 1
    30   23   28 2
    31   24   26 1
    32   25   27 1
    33    1   29 1
    34    2   30 1
    35    3   31 1
    36    4   32 1
    37    5   33 1
    38    6   34 1
    39    7   35 1
    40    8   36 1
    41    9   37 1
    42   10   38 1
    43   11   39 1
    44   12   40 1
    45   13   41 1
    46   14   42 1
    47   15   43 1
    48   27   44 1
@<TRIPOS>Similarity
1.5367
@<TRIPOS>ShapeSim
0.8320
@<TRIPOS>PharmSim
0.7048
# END
# Name:		ZINC00384358
# Created and modified by SHAFTS on Thu Jun  3 03:39:13 2010

# 

@<TRIPOS>MOLECULE
ZINC00384358
   33    35     0
SMALL
USER_CHARGE


@<TRIPOS>ATOM
      1 C1          6.5466   -3.0221    1.2136 C.ar      1 <1>        -0.0604
      2 C2          5.8831   -2.0045    0.5374 C.ar      1 <1>        -0.0587
      3 C3          1.1122    3.1046   -0.3764 C.ar      1 <1>        -0.0762
      4 C4          0.1345    1.0512    0.4388 C.ar      1 <1>        -0.0814
      5 C5         -0.1317    3.7300   -0.2932 C.ar      1 <1>        -0.0956
      6 C6         -1.1096    1.6767    0.5220 C.ar      1 <1>        -0.0985
      7 C7          6.0960   -3.3612    2.4791 C.ar      1 <1>        -0.0360
      8 C8          4.4314   -1.7793    2.4078 C.ar      1 <1>        -0.0027
      9 C9          3.4780    1.4854   -1.0253 C.2       1 <1>        -0.0045
     10 C10         1.2454    1.7652   -0.0104 C.ar      1 <1>        -0.0487
     11 C11         4.8043   -1.3659    1.1388 C.ar      1 <1>         0.0143
     12 C12        -1.2427    3.0161    0.1560 C.ar      1 <1>        -0.1147
     13 C13         2.5265    1.1220   -0.0955 C.2       1 <1>        -0.0280
     14 C14         4.0950   -0.3058    0.4625 C.2       1 <1>         0.0431
     15 C15        -2.5174    5.1461   -0.1964 C.3       1 <1>        -0.0635
     16 C16        -2.5719    3.6861    0.2457 C.3       1 <1>        -0.0493
     17 N1          5.0517   -2.7639    3.0959 N.ar      1 <1>        -0.3895
     18 N2          2.8784    0.0947    0.7582 N.2       1 <1>        -0.3835
     19 S1          4.8747    0.5093   -0.8309 S.3       1 <1>        -0.0857
     20 H1          7.3900   -3.5338    0.7643 H         1 <1>         0.1335
     21 H2          6.2179   -1.7201   -0.4571 H         1 <1>         0.1478
     22 H3          1.9683    3.6750   -0.7292 H         1 <1>         0.1358
     23 H4          0.2220    0.0065    0.7279 H         1 <1>         0.1244
     24 H5         -0.2265    4.7741   -0.5795 H         1 <1>         0.1192
     25 H6         -1.9702    1.1134    0.8731 H         1 <1>         0.1192
     26 H7          6.5794   -4.1483    3.0483 H         1 <1>         0.2079
     27 H8          3.5975   -1.3214    2.9322 H         1 <1>         0.2254
     28 H9          3.4307    2.2520   -1.7866 H         1 <1>         0.1815
     29 H10        -1.7877    5.7089    0.3956 H         1 <1>         0.0338
     30 H11        -3.4942    5.6248   -0.0746 H         1 <1>         0.0362
     31 H12        -2.2291    5.2270   -1.2500 H         1 <1>         0.0340
     32 H13        -3.3139    3.1515   -0.3691 H         1 <1>         0.0603
     33 H14        -2.9583    3.6365    1.2765 H         1 <1>         0.0605
@<TRIPOS>BOND
     1    1    2 ar
     2    1    7 ar
     3    2   11 ar
     4    3    5 ar
     5    3   10 ar
     6    4    6 ar
     7    4   10 ar
     8    5   12 ar
     9    6   12 ar
    10    7   17 ar
    11    8   11 ar
    12    8   17 ar
    13    9   13 2
    14    9   19 1
    15   10   13 1
    16   11   14 1
    17   12   16 1
    18   13   18 1
    19   14   18 2
    20   14   19 1
    21   15   16 1
    22    1   20 1
    23    2   21 1
    24    3   22 1
    25    4   23 1
    26    5   24 1
    27    6   25 1
    28    7   26 1
    29    8   27 1
    30    9   28 1
    31   15   29 1
    32   15   30 1
    33   15   31 1
    34   16   32 1
    35   16   33 1
@<TRIPOS>Similarity
1.5352
@<TRIPOS>ShapeSim
0.8777
@<TRIPOS>PharmSim
0.6575
# END
# Name:		AO-476/43249991
# Created and modified by SHAFTS on Thu Jun  3 03:39:13 2010

# 

@<TRIPOS>MOLECULE
AO-476/43249991
   44    48     0
SMALL
USER_CHARGE


@<TRIPOS>ATOM
      1 C1          0.3953   -0.7424    3.2662 C.ar      1 <1>        -0.0981
      2 C2         -1.5198    2.5684    0.7695 C.ar      1 <1>        -0.1012
      3 C3          0.9066    0.5546    3.2215 C.ar      1 <1>        -0.0918
      4 C4          0.8344   -1.6972    2.3490 C.ar      1 <1>        -0.0960
      5 C5         -1.1492    1.3749    0.1499 C.ar      1 <1>        -0.0960
      6 C6         -0.6393    3.6502    0.7825 C.ar      1 <1>        -0.0948
      7 C7          1.8571    0.8967    2.2596 C.ar      1 <1>        -0.0744
      8 C8          1.7848   -1.3550    1.3871 C.ar      1 <1>        -0.0798
      9 C9          0.1019    1.2632   -0.4567 C.ar      1 <1>        -0.0719
     10 C10         0.6119    3.5385    0.1760 C.ar      1 <1>        -0.0714
     11 C11         5.1290   -1.1755    2.4036 C.ar      1 <1>        -0.0353
     12 C12         5.3335   -2.5758    0.4455 C.ar      1 <1>        -0.0375
     13 C13         5.6152   -2.2144    3.1974 C.ar      1 <1>        -0.0282
     14 C14         5.8198   -3.6147    1.2392 C.ar      1 <1>        -0.0293
     15 C15         2.2961   -0.0580    1.3424 C.ar      1 <1>        -0.0359
     16 C16         0.9825    2.3450   -0.4436 C.ar      1 <1>        -0.0150
     17 C17         3.2560    1.2390   -0.6500 C.2       1 <1>         0.0561
     18 C18         4.9881   -1.3563    1.0277 C.ar      1 <1>         0.0171
     19 C19         5.9606   -3.4339    2.6151 C.ar      1 <1>         0.0749
     20 C20         3.2823    0.2967    0.3456 C.2       1 <1>         0.0289
     21 C21         4.5037    1.1313   -1.2788 C.2       1 <1>         0.1376
     22 C22         2.3062    2.2268   -1.0852 C.2       1 <1>         0.0482
     23 C23         4.8612    2.0057   -2.3623 C.2       1 <1>         0.1828
     24 N1          5.2745    0.1773   -0.7550 N.2       1 <1>        -0.2618
     25 N2          2.6328    3.0365   -2.0536 N.2       1 <1>        -0.2981
     26 N3          4.5014   -0.3159    0.2332 N.pl3     1 <1>        -0.2501
     27 N4          3.8627    2.9271   -2.6675 N.am      1 <1>        -0.2277
     28 O1          5.9382    1.9434   -2.9466 O.2       1 <1>        -0.4459
     29 F1          6.4275   -4.4315    3.3773 F         1 <1>        -0.2599
     30 H1         -0.3443   -1.0090    4.0157 H         1 <1>         0.1244
     31 H2         -2.4939    2.6553    1.2418 H         1 <1>         0.1206
     32 H3          0.5645    1.2980    3.9356 H         1 <1>         0.1250
     33 H4          0.4370   -2.7074    2.3846 H         1 <1>         0.1224
     34 H5         -1.8348    0.5327    0.1400 H         1 <1>         0.1196
     35 H6         -0.9280    4.5795    1.2648 H         1 <1>         0.1196
     36 H7          2.2479    1.9113    2.2394 H         1 <1>         0.1325
     37 H8          2.1160   -2.1104    0.6786 H         1 <1>         0.1244
     38 H9          0.3805    0.3286   -0.9366 H         1 <1>         0.1328
     39 H10         1.2899    4.3878    0.1925 H         1 <1>         0.1292
     40 H11         4.8630   -0.2304    2.8710 H         1 <1>         0.1596
     41 H12         5.2297   -2.7298   -0.6259 H         1 <1>         0.1546
     42 H13         5.7242   -2.0744    4.2687 H         1 <1>         0.1474
     43 H14         6.0896   -4.5642    0.7864 H         1 <1>         0.1474
     44 H15         4.0598    3.5837   -3.4165 H         1 <1>         0.3947
@<TRIPOS>BOND
     1    1    3 ar
     2    1    4 ar
     3    2    5 ar
     4    2    6 ar
     5    3    7 ar
     6    4    8 ar
     7    5    9 ar
     8    6   10 ar
     9    7   15 ar
    10    8   15 ar
    11    9   16 ar
    12   10   16 ar
    13   11   13 ar
    14   11   18 ar
    15   12   14 ar
    16   12   18 ar
    17   13   19 ar
    18   14   19 ar
    19   15   20 1
    20   16   22 1
    21   17   20 2
    22   17   21 1
    23   17   22 1
    24   18   26 1
    25   19   29 1
    26   20   26 1
    27   21   23 1
    28   21   24 2
    29   22   25 2
    30   23   27 am
    31   23   28 2
    32   24   26 1
    33   25   27 1
    34    1   30 1
    35    2   31 1
    36    3   32 1
    37    4   33 1
    38    5   34 1
    39    6   35 1
    40    7   36 1
    41    8   37 1
    42    9   38 1
    43   10   39 1
    44   11   40 1
    45   12   41 1
    46   13   42 1
    47   14   43 1
    48   27   44 1
@<TRIPOS>Similarity
1.5348
@<TRIPOS>ShapeSim
0.8454
@<TRIPOS>PharmSim
0.6894
# END
# Name:		AO-476/43249986
# Created and modified by SHAFTS on Thu Jun  3 03:39:13 2010

# 

@<TRIPOS>MOLECULE
AO-476/43249986
   44    48     0
SMALL
USER_CHARGE


@<TRIPOS>ATOM
      1 C1          0.3949   -0.7386    3.2688 C.ar      1 <1>        -0.0982
      2 C2         -1.5201    2.5698    0.7689 C.ar      1 <1>        -0.1013
      3 C3          0.9063    0.5582    3.2227 C.ar      1 <1>        -0.0917
      4 C4          0.8338   -1.6944    2.3525 C.ar      1 <1>        -0.0960
      5 C5         -1.1496    1.3757    0.1505 C.ar      1 <1>        -0.0948
      6 C6         -0.6395    3.6515    0.7808 C.ar      1 <1>        -0.0961
      7 C7          5.8190   -3.6141    1.2370 C.ar      1 <1>        -0.0780
      8 C8          5.9625   -3.4356    2.6129 C.ar      1 <1>        -0.0806
      9 C9          1.8568    0.8994    2.2605 C.ar      1 <1>        -0.0737
     10 C10         1.7842   -1.3532    1.3901 C.ar      1 <1>        -0.0794
     11 C11         0.1015    1.2633   -0.4561 C.ar      1 <1>        -0.0714
     12 C12         0.6116    3.5391    0.1744 C.ar      1 <1>        -0.0718
     13 C13         5.3316   -2.5738    0.4458 C.ar      1 <1>        -0.0376
     14 C14         5.6185   -2.2168    3.1977 C.ar      1 <1>        -0.0281
     15 C15         2.2956   -0.0563    1.3442 C.ar      1 <1>        -0.0347
     16 C16         0.9821    2.3450   -0.4441 C.ar      1 <1>        -0.0150
     17 C17         3.2555    1.2386   -0.6496 C.2       1 <1>         0.0563
     18 C18         4.9875   -1.3551    1.0306 C.ar      1 <1>         0.0654
     19 C19         5.1311   -1.1766    2.4065 C.ar      1 <1>         0.1210
     20 C20         3.2818    0.2973    0.3470 C.2       1 <1>         0.0292
     21 C21         4.5032    1.1302   -1.2783 C.2       1 <1>         0.1386
     22 C22         2.3058    2.2260   -1.0857 C.2       1 <1>         0.0481
     23 C23         4.8607    2.0035   -2.3627 C.2       1 <1>         0.1832
     24 N1          5.2739    0.1767   -0.7537 N.2       1 <1>        -0.2603
     25 N2          2.6324    3.0348   -2.0549 N.2       1 <1>        -0.2981
     26 N3          4.5009   -0.3155    0.2350 N.pl3     1 <1>        -0.2441
     27 N4          3.8622    2.9247   -2.6688 N.am      1 <1>        -0.2277
     28 O1          5.9376    1.9406   -2.9471 O.2       1 <1>        -0.4454
     29 F1          4.8046   -0.0101    2.9817 F         1 <1>        -0.2423
     30 H1         -0.3446   -1.0044    4.0185 H         1 <1>         0.1240
     31 H2         -2.4942    2.6573    1.2411 H         1 <1>         0.1206
     32 H3          0.5643    1.3024    3.9362 H         1 <1>         0.1246
     33 H4          0.4364   -2.7046    2.3891 H         1 <1>         0.1219
     34 H5         -1.8353    0.5335    0.1415 H         1 <1>         0.1195
     35 H6         -0.9281    4.5813    1.2621 H         1 <1>         0.1195
     36 H7          6.0875   -4.5628    0.7818 H         1 <1>         0.1385
     37 H8          6.3423   -4.2459    3.2284 H         1 <1>         0.1452
     38 H9          2.2477    1.9138    2.2392 H         1 <1>         0.1327
     39 H10         2.1153   -2.1093    0.6824 H         1 <1>         0.1229
     40 H11         0.3800    0.3282   -0.9351 H         1 <1>         0.1289
     41 H12         1.2897    4.3885    0.1899 H         1 <1>         0.1329
     42 H13         5.2254   -2.7266   -0.6255 H         1 <1>         0.1528
     43 H14         5.7298   -2.0780    4.2690 H         1 <1>         0.1458
     44 H15         4.0593    3.5805   -3.4184 H         1 <1>         0.3946
@<TRIPOS>BOND
     1    1    3 ar
     2    1    4 ar
     3    2    5 ar
     4    2    6 ar
     5    3    9 ar
     6    4   10 ar
     7    5   11 ar
     8    6   12 ar
     9    7    8 ar
    10    7   13 ar
    11    8   14 ar
    12    9   15 ar
    13   10   15 ar
    14   11   16 ar
    15   12   16 ar
    16   13   18 ar
    17   14   19 ar
    18   15   20 1
    19   16   22 1
    20   17   20 2
    21   17   21 1
    22   17   22 1
    23   18   19 ar
    24   18   26 1
    25   19   29 1
    26   20   26 1
    27   21   23 1
    28   21   24 2
    29   22   25 2
    30   23   27 am
    31   23   28 2
    32   24   26 1
    33   25   27 1
    34    1   30 1
    35    2   31 1
    36    3   32 1
    37    4   33 1
    38    5   34 1
    39    6   35 1
    40    7   36 1
    41    8   37 1
    42    9   38 1
    43   10   39 1
    44   11   40 1
    45   12   41 1
    46   13   42 1
    47   14   43 1
    48   27   44 1
@<TRIPOS>Similarity
1.5346
@<TRIPOS>ShapeSim
0.8454
@<TRIPOS>PharmSim
0.6893
# END
# Name:		AE-641/14883017
# Created and modified by SHAFTS on Thu Jun  3 03:39:13 2010

# 

@<TRIPOS>MOLECULE
AE-641/14883017
   38    40     0
SMALL
USER_CHARGE


@<TRIPOS>ATOM
      1 C1          6.1368   -3.3965    2.4712 C.ar      1 <1>        -0.1053
      2 C2         -1.0950    2.9718    0.1142 C.ar      1 <1>        -0.0959
      3 C3          5.8961   -3.5091    1.1020 C.ar      1 <1>        -0.0998
      4 C4          5.7215   -2.2574    3.1610 C.ar      1 <1>        -0.0992
      5 C5          0.0771    3.7071    0.2905 C.ar      1 <1>        -0.0874
      6 C6         -1.0277    1.6001   -0.1303 C.ar      1 <1>        -0.0848
      7 C7          5.2403   -2.4826    0.4224 C.ar      1 <1>        -0.0780
      8 C8          5.0659   -1.2308    2.4814 C.ar      1 <1>        -0.0772
      9 C9          1.3165    3.0708    0.2223 C.ar      1 <1>        -0.0494
     10 C10         0.2117    0.9638   -0.1985 C.ar      1 <1>        -0.0468
     11 C11         4.8252   -1.3434    1.1121 C.ar      1 <1>        -0.0376
     12 C12         4.6464    0.4721   -0.6646 C.2       1 <1>        -0.0184
     13 C13         1.3838    1.6991   -0.0223 C.ar      1 <1>         0.0098
     14 C14         4.1502   -0.2863    0.4126 C.2       1 <1>         0.0220
     15 C15         3.6284    1.3425   -0.9694 C.2       1 <1>         0.1165
     16 C16         3.5889    2.3473   -1.9875 C.2       1 <1>         0.2147
     17 C17         5.9616    0.3624   -1.3232 C.3       1 <1>        -0.0221
     18 C18         4.3980    2.9464   -4.1714 C.3       1 <1>         0.0394
     19 N1          2.9133    0.0709    0.7682 N.2       1 <1>        -0.2917
     20 N2          2.6237    1.0635   -0.0903 N.pl3     1 <1>        -0.2524
     21 O1          2.9429    3.4173   -1.9234 O.2       1 <1>        -0.4280
     22 O2          4.3554    2.0175   -3.0829 O.3       1 <1>        -0.3438
     23 H1          6.6463   -4.1961    3.0008 H         1 <1>         0.1174
     24 H2         -2.0602    3.4663    0.1690 H         1 <1>         0.1269
     25 H3          6.2181   -4.3965    0.5649 H         1 <1>         0.1193
     26 H4          5.9079   -2.1705    4.2273 H         1 <1>         0.1183
     27 H5          0.0249    4.7748    0.4822 H         1 <1>         0.1289
     28 H6         -1.9410    1.0279   -0.2661 H         1 <1>         0.1298
     29 H7          5.0602   -2.5852   -0.6452 H         1 <1>         0.1283
     30 H8          4.7485   -0.3492    3.0335 H         1 <1>         0.1284
     31 H9          2.2225    3.6555    0.3623 H         1 <1>         0.1411
     32 H10         0.2497   -0.1060   -0.3891 H         1 <1>         0.1412
     33 H11         5.9285   -0.3523   -2.1623 H         1 <1>         0.0684
     34 H12         6.3077    1.3313   -1.7229 H         1 <1>         0.0683
     35 H13         6.7476    0.0233   -0.6261 H         1 <1>         0.0751
     36 H14         5.0407    2.5526   -4.9625 H         1 <1>         0.0988
     37 H15         4.7836    3.9060   -3.8177 H         1 <1>         0.1267
     38 H16         3.3866    3.0839   -4.5612 H         1 <1>         0.0985
@<TRIPOS>BOND
     1    1    3 ar
     2    1    4 ar
     3    2    5 ar
     4    2    6 ar
     5    3    7 ar
     6    4    8 ar
     7    5    9 ar
     8    6   10 ar
     9    7   11 ar
    10    8   11 ar
    11    9   13 ar
    12   10   13 ar
    13   11   14 1
    14   12   14 1
    15   12   15 2
    16   12   17 1
    17   13   20 1
    18   14   19 2
    19   15   16 1
    20   15   20 1
    21   16   21 2
    22   16   22 1
    23   18   22 1
    24   19   20 1
    25    1   23 1
    26    2   24 1
    27    3   25 1
    28    4   26 1
    29    5   27 1
    30    6   28 1
    31    7   29 1
    32    8   30 1
    33    9   31 1
    34   10   32 1
    35   17   33 1
    36   17   34 1
    37   17   35 1
    38   18   36 1
    39   18   37 1
    40   18   38 1
@<TRIPOS>Similarity
1.5343
@<TRIPOS>ShapeSim
0.9480
@<TRIPOS>PharmSim
0.5864
# END
# Name:		AF-826/30392059
# Created and modified by SHAFTS on Thu Jun  3 03:39:13 2010

# 

@<TRIPOS>MOLECULE
AF-826/30392059
   38    40     0
SMALL
USER_CHARGE


@<TRIPOS>ATOM
      1 C1          0.2073    1.2803   -0.7772 C.ar      1 <1>        -0.0633
      2 C2          1.1211    2.8892    0.7764 C.ar      1 <1>        -0.0598
      3 C3         -1.0012    1.9766   -0.7874 C.ar      1 <1>        -0.0637
      4 C4         -0.0875    3.5855    0.7661 C.ar      1 <1>        -0.0607
      5 C5          3.5562    1.2886   -0.8770 C.ar      1 <1>         0.0515
      6 C6          1.2685    1.7365    0.0049 C.ar      1 <1>        -0.0119
      7 C7          3.7068    2.2312   -1.9423 C.2       1 <1>        -0.0266
      8 C8         -1.1487    3.1292   -0.0159 C.ar      1 <1>        -0.0086
      9 C9          2.5143    1.0183    0.0159 C.ar      1 <1>         0.0274
     10 C10         4.9330    2.1340   -2.5634 C.2       1 <1>         0.1368
     11 C11         4.6977    0.5091   -0.7415 C.ar      1 <1>         0.0742
     12 C12         3.8132   -0.6315    0.9596 C.ar      1 <1>         0.0925
     13 C13         5.4602    2.8887   -3.6564 C.2       1 <1>         0.1906
     14 C14         3.8709    5.6211   -5.5602 C.3       1 <1>        -0.0330
     15 C15         5.6161   -2.5015    1.8348 C.3       1 <1>         0.0304
     16 C16         4.9876    4.6583   -5.2172 C.3       1 <1>         0.0279
     17 N1          2.6487    0.0461    0.9432 N.ar      1 <1>        -0.3246
     18 N2          4.8854   -0.4714    0.1634 N.ar      1 <1>        -0.3307
     19 N3          2.7620    3.1292   -2.3171 N.pl3     1 <1>        -0.3939
     20 O1          6.5948    2.7345   -4.1644 O.2       1 <1>        -0.4516
     21 O2          4.5744    3.8367   -4.1199 O.3       1 <1>        -0.3476
     22 S1          5.9090    0.9120   -1.8705 S.3       1 <1>        -0.0089
     23 S2          3.9504   -1.9080    2.2002 S.3       1 <1>        -0.0621
     24 Cl1        -2.6406    3.9869   -0.0279 Cl        1 <1>        -0.1323
     25 H1          0.3068    0.3834   -1.3838 H         1 <1>         0.1457
     26 H2          1.9388    3.2570    1.3920 H         1 <1>         0.1495
     27 H3         -1.8207    1.6089   -1.4000 H         1 <1>         0.1393
     28 H4         -0.1887    4.4815    1.3733 H         1 <1>         0.1408
     29 H5          2.9654    5.0811   -5.8503 H         1 <1>         0.0490
     30 H6          3.6400    6.2649   -4.7050 H         1 <1>         0.0489
     31 H7          4.1684    6.2796   -6.3831 H         1 <1>         0.0586
     32 H8          5.8802   -3.3120    2.5184 H         1 <1>         0.0829
     33 H9          6.3346   -1.6867    1.9535 H         1 <1>         0.0830
     34 H10         5.6612   -2.8712    0.8076 H         1 <1>         0.0996
     35 H11         5.8903    5.2048   -4.9280 H         1 <1>         0.1013
     36 H12         5.2164    4.0153   -6.0723 H         1 <1>         0.1013
     37 H13         1.8349    3.1569   -1.8749 H         1 <1>         0.2787
     38 H14         2.8980    3.7555   -3.1202 H         1 <1>         0.2694
@<TRIPOS>BOND
     1    1    3 ar
     2    1    6 ar
     3    2    4 ar
     4    2    6 ar
     5    3    8 ar
     6    4    8 ar
     7    5    7 1
     8    5    9 ar
     9    5   11 ar
    10    6    9 1
    11    7   10 2
    12    7   19 1
    13    8   24 1
    14    9   17 ar
    15   10   13 1
    16   10   22 1
    17   11   18 ar
    18   11   22 1
    19   12   17 ar
    20   12   18 ar
    21   12   23 1
    22   13   20 2
    23   13   21 1
    24   14   16 1
    25   15   23 1
    26   16   21 1
    27    1   25 1
    28    2   26 1
    29    3   27 1
    30    4   28 1
    31   14   29 1
    32   14   30 1
    33   14   31 1
    34   15   32 1
    35   15   33 1
    36   15   34 1
    37   16   35 1
    38   16   36 1
    39   19   37 1
    40   19   38 1
@<TRIPOS>Similarity
1.5343
@<TRIPOS>ShapeSim
0.8554
@<TRIPOS>PharmSim
0.6788
# END
# Name:		AN-919/15183003
# Created and modified by SHAFTS on Thu Jun  3 03:39:13 2010

# 

@<TRIPOS>MOLECULE
AN-919/15183003
   35    37     0
SMALL
USER_CHARGE


@<TRIPOS>ATOM
      1 C1          3.1232    2.9614   -2.3505 C.1       1 <1>         0.0741
      2 C2          6.0103   -3.2982    2.4439 C.ar      1 <1>        -0.1106
      3 C3          5.0933   -2.4010    2.9912 C.ar      1 <1>        -0.1010
      4 C4          6.4185   -3.1564    1.1177 C.ar      1 <1>        -0.1057
      5 C5          4.5841   -1.3620    2.2121 C.ar      1 <1>        -0.0732
      6 C6          5.9093   -2.1174    0.3386 C.ar      1 <1>        -0.0809
      7 C7          1.2415    2.9867    0.6056 C.ar      1 <1>        -0.0708
      8 C8          0.3297    1.3771   -0.9482 C.ar      1 <1>        -0.0704
      9 C9         -0.0372    3.4985    0.8259 C.ar      1 <1>        -0.0722
     10 C10        -0.9491    1.8887   -0.7280 C.ar      1 <1>        -0.0711
     11 C11         3.1939    0.3588    0.3042 C.ar      1 <1>        -0.0393
     12 C12         3.5818    1.8899   -1.5096 C.ar      1 <1>         0.1085
     13 C13         1.4250    1.9260   -0.2814 C.ar      1 <1>        -0.0503
     14 C14         4.9922   -1.2202    0.8858 C.ar      1 <1>        -0.0332
     15 C15         2.7514    1.3954   -0.5100 C.ar      1 <1>        -0.0145
     16 C16        -1.1326    2.9496    0.1591 C.ar      1 <1>         0.0245
     17 C17         4.4652   -0.1445    0.0799 C.ar      1 <1>        -0.0097
     18 C18         4.8358    1.3182   -1.6526 C.ar      1 <1>        -0.0602
     19 C19        -2.4997    3.4968    0.3944 C.3       1 <1>         0.3443
     20 N1          2.7528    3.8267   -3.0294 N.1       1 <1>        -0.3874
     21 N2          5.3006    0.3099   -0.8810 N.ar      1 <1>        -0.3654
     22 F1         -2.5294    4.5318    1.2855 F         1 <1>        -0.1928
     23 F2         -3.0962    3.9822   -0.7346 F         1 <1>        -0.1925
     24 F3         -3.3615    2.5619    0.8907 F         1 <1>        -0.1929
     25 S1          6.0148    1.8765   -2.9225 S.3       1 <1>        -0.5375
     26 H1          6.4079   -4.1061    3.0512 H         1 <1>         0.1108
     27 H2          4.7767   -2.5103    4.0243 H         1 <1>         0.1135
     28 H3          7.1336   -3.8538    0.6913 H         1 <1>         0.1115
     29 H4          3.8701   -0.6705    2.6533 H         1 <1>         0.1422
     30 H5          6.2372   -2.0191   -0.6935 H         1 <1>         0.1260
     31 H6          2.0854    3.4260    1.1324 H         1 <1>         0.1400
     32 H7          0.4564    0.5495   -1.6423 H         1 <1>         0.1367
     33 H8         -0.1707    4.3258    1.5178 H         1 <1>         0.1384
     34 H9         -1.7970    1.4546   -1.2513 H         1 <1>         0.1391
     35 H10         2.5645   -0.0452    1.0925 H         1 <1>         0.1219
@<TRIPOS>BOND
     1    1   12 1
     2    1   20 3
     3    2    3 ar
     4    2    4 ar
     5    3    5 ar
     6    4    6 ar
     7    5   14 ar
     8    6   14 ar
     9    7    9 ar
    10    7   13 ar
    11    8   10 ar
    12    8   13 ar
    13    9   16 ar
    14   10   16 ar
    15   11   15 ar
    16   11   17 ar
    17   12   15 ar
    18   12   18 ar
    19   13   15 1
    20   14   17 1
    21   16   19 1
    22   17   21 ar
    23   18   21 ar
    24   18   25 1
    25   19   22 1
    26   19   23 1
    27   19   24 1
    28    2   26 1
    29    3   27 1
    30    4   28 1
    31    5   29 1
    32    6   30 1
    33    7   31 1
    34    8   32 1
    35    9   33 1
    36   10   34 1
    37   11   35 1
@<TRIPOS>Similarity
1.5335
@<TRIPOS>ShapeSim
0.9137
@<TRIPOS>PharmSim
0.6198
# END
# Name:		AG-690/40749964
# Created and modified by SHAFTS on Thu Jun  3 03:39:13 2010

# 

@<TRIPOS>MOLECULE
AG-690/40749964
   45    47     0
SMALL
USER_CHARGE


@<TRIPOS>ATOM
      1 C1          2.9918    2.8977   -2.2045 C.1       1 <1>         0.0757
      2 C2          5.0327   -1.1236    2.3898 C.ar      1 <1>        -0.0737
      3 C3          5.2663   -2.4822    0.4057 C.ar      1 <1>        -0.0780
      4 C4          0.1864    1.0089   -0.2320 C.ar      1 <1>        -0.0756
      5 C5          1.1259    3.1900    0.2120 C.ar      1 <1>        -0.0742
      6 C6          5.5533   -2.1620    3.1621 C.ar      1 <1>        -0.0953
      7 C7          5.7869   -3.5206    1.1780 C.ar      1 <1>        -0.0976
      8 C8         -1.0936    1.5138   -0.0034 C.ar      1 <1>        -0.0662
      9 C9         -0.1540    3.6949    0.4406 C.ar      1 <1>        -0.0660
     10 C10         3.0774    0.2859    0.4463 C.ar      1 <1>        -0.0188
     11 C11         3.4457    1.8266   -1.3633 C.ar      1 <1>         0.1154
     12 C12         1.2963    1.8470   -0.1242 C.ar      1 <1>        -0.0529
     13 C13         4.8892   -1.2838    1.0116 C.ar      1 <1>        -0.0315
     14 C14         2.6241    1.3232   -0.3609 C.ar      1 <1>        -0.0070
     15 C15         5.9304   -3.3604    2.5562 C.ar      1 <1>        -0.1148
     16 C16        -1.2639    2.8568    0.3329 C.ar      1 <1>        -0.0112
     17 C17         4.3501   -0.2093    0.2124 C.ar      1 <1>        -0.0026
     18 C18         4.7020    1.2626   -1.5161 C.ar      1 <1>         0.0577
     19 C19         6.4869   -4.4707    3.3819 C.3       1 <1>        -0.0414
     20 C20         6.6656    3.0674   -0.4835 C.3       1 <1>        -0.0520
     21 C21         8.0436    1.1297   -1.3125 C.3       1 <1>        -0.0503
     22 C22         7.2131    2.3446   -1.7085 C.3       1 <1>        -0.0099
     23 N1          2.6249    3.7637   -2.8844 N.1       1 <1>        -0.3592
     24 N2          5.1771    0.2540   -0.7515 N.ar      1 <1>        -0.3581
     25 S1          5.8490    1.8292   -2.7714 S.3       1 <1>        -0.1257
     26 Cl1        -2.8435    3.4786    0.6164 Cl        1 <1>        -0.1374
     27 H1          4.7427   -0.1957    2.8769 H         1 <1>         0.1400
     28 H2          5.1611   -2.6221   -0.6676 H         1 <1>         0.1309
     29 H3          0.3030   -0.0402   -0.4931 H         1 <1>         0.1352
     30 H4          1.9813    3.8558    0.3007 H         1 <1>         0.1416
     31 H5          5.6606   -2.0288    4.2353 H         1 <1>         0.1196
     32 H6          6.0787   -4.4508    0.6975 H         1 <1>         0.1206
     33 H7         -1.9497    0.8491   -0.0889 H         1 <1>         0.1379
     34 H8         -0.2718    4.7433    0.7031 H         1 <1>         0.1385
     35 H9          2.4554   -0.1252    1.2368 H         1 <1>         0.1501
     36 H10         5.6806   -5.1252    3.7350 H         1 <1>         0.0589
     37 H11         7.1999   -5.0760    2.8073 H         1 <1>         0.0551
     38 H12         7.0293   -4.0847    4.2550 H         1 <1>         0.0549
     39 H13         6.0363    2.3923    0.1071 H         1 <1>         0.0423
     40 H14         7.4743    3.4137    0.1696 H         1 <1>         0.0518
     41 H15         6.0516    3.9322   -0.7596 H         1 <1>         0.0384
     42 H16         7.4354    0.4248   -0.7346 H         1 <1>         0.0445
     43 H17         8.8950    1.4159   -0.6851 H         1 <1>         0.0536
     44 H18         8.4263    0.5931   -2.1881 H         1 <1>         0.0444
     45 H19         7.8382    3.0355   -2.2841 H         1 <1>         0.0923
@<TRIPOS>BOND
     1    1   11 1
     2    1   23 3
     3    2    6 ar
     4    2   13 ar
     5    3    7 ar
     6    3   13 ar
     7    4    8 ar
     8    4   12 ar
     9    5    9 ar
    10    5   12 ar
    11    6   15 ar
    12    7   15 ar
    13    8   16 ar
    14    9   16 ar
    15   10   14 ar
    16   10   17 ar
    17   11   14 ar
    18   11   18 ar
    19   12   14 1
    20   13   17 1
    21   15   19 1
    22   16   26 1
    23   17   24 ar
    24   18   24 ar
    25   18   25 1
    26   20   22 1
    27   21   22 1
    28   22   25 1
    29    2   27 1
    30    3   28 1
    31    4   29 1
    32    5   30 1
    33    6   31 1
    34    7   32 1
    35    8   33 1
    36    9   34 1
    37   10   35 1
    38   19   36 1
    39   19   37 1
    40   19   38 1
    41   20   39 1
    42   20   40 1
    43   20   41 1
    44   21   42 1
    45   21   43 1
    46   21   44 1
    47   22   45 1
@<TRIPOS>Similarity
1.5333
@<TRIPOS>ShapeSim
0.9091
@<TRIPOS>PharmSim
0.6242
# END
# Name:		AO-476/43249984
# Created and modified by SHAFTS on Thu Jun  3 03:39:13 2010

# 

@<TRIPOS>MOLECULE
AO-476/43249984
   47    51     0
SMALL
USER_CHARGE


@<TRIPOS>ATOM
      1 C1          0.3951   -0.7415    3.2668 C.ar      1 <1>        -0.0986
      2 C2         -1.5198    2.5687    0.7694 C.ar      1 <1>        -0.1014
      3 C3          0.9066    0.5554    3.2218 C.ar      1 <1>        -0.0923
      4 C4          0.8342   -1.6966    2.3498 C.ar      1 <1>        -0.0961
      5 C5         -1.1493    1.3751    0.1500 C.ar      1 <1>        -0.0948
      6 C6         -0.6393    3.6505    0.7822 C.ar      1 <1>        -0.0962
      7 C7          1.8570    0.8973    2.2598 C.ar      1 <1>        -0.0743
      8 C8          1.7846   -1.3546    1.3877 C.ar      1 <1>        -0.0791
      9 C9          0.1018    1.2632   -0.4565 C.ar      1 <1>        -0.0713
     10 C10         0.6118    3.5386    0.1757 C.ar      1 <1>        -0.0719
     11 C11         5.6157   -2.2150    3.1975 C.ar      1 <1>        -0.0847
     12 C12         5.8199   -3.6145    1.2387 C.ar      1 <1>        -0.0857
     13 C13         5.1292   -1.1758    2.4044 C.ar      1 <1>        -0.0482
     14 C14         5.3333   -2.5753    0.4455 C.ar      1 <1>        -0.0500
     15 C15         2.2960   -0.0576    1.3428 C.ar      1 <1>        -0.0351
     16 C16         0.9824    2.3450   -0.4437 C.ar      1 <1>        -0.0150
     17 C17         3.2559    1.2389   -0.6499 C.2       1 <1>         0.0550
     18 C18         5.9610   -3.4344    2.6146 C.ar      1 <1>        -0.1076
     19 C19         4.9880   -1.3560    1.0284 C.ar      1 <1>         0.0105
     20 C20         3.2822    0.2968    0.3459 C.2       1 <1>         0.0291
     21 C21         4.5036    1.1311   -1.2787 C.2       1 <1>         0.1363
     22 C22         2.3061    2.2266   -1.0853 C.2       1 <1>         0.0475
     23 C23         4.8611    2.0052   -2.3624 C.2       1 <1>         0.1817
     24 C24         6.4812   -4.5454    3.4625 C.3       1 <1>        -0.0392
     25 N1          5.2744    0.1772   -0.7547 N.2       1 <1>        -0.2623
     26 N2          2.6328    3.0361   -2.0539 N.2       1 <1>        -0.2988
     27 N3          4.5013   -0.3158    0.2336 N.pl3     1 <1>        -0.2511
     28 N4          3.8626    2.9266   -2.6678 N.am      1 <1>        -0.2283
     29 O1          5.9380    1.9428   -2.9467 O.2       1 <1>        -0.4469
     30 H1         -0.3444   -1.0079    4.0163 H         1 <1>         0.1235
     31 H2         -2.4940    2.6558    1.2416 H         1 <1>         0.1204
     32 H3          0.5644    1.2990    3.9357 H         1 <1>         0.1242
     33 H4          0.4369   -2.7068    2.3856 H         1 <1>         0.1217
     34 H5         -1.8349    0.5329    0.1403 H         1 <1>         0.1195
     35 H6         -0.9280    4.5799    1.2642 H         1 <1>         0.1194
     36 H7          2.2479    1.9118    2.2394 H         1 <1>         0.1318
     37 H8          2.1158   -2.1101    0.6794 H         1 <1>         0.1243
     38 H9          0.3804    0.3285   -0.9363 H         1 <1>         0.1291
     39 H10         1.2898    4.3880    0.1919 H         1 <1>         0.1327
     40 H11         5.7227   -2.0665    4.2687 H         1 <1>         0.1328
     41 H12         6.0866   -4.5610    0.7759 H         1 <1>         0.1329
     42 H13         4.8644   -0.2301    2.8711 H         1 <1>         0.1453
     43 H14         5.2288   -2.7298   -0.6257 H         1 <1>         0.1412
     44 H15         5.6547   -5.1702    3.8226 H         1 <1>         0.0611
     45 H16         7.1792   -5.1811    2.9024 H         1 <1>         0.0573
     46 H17         7.0303   -4.1600    4.3316 H         1 <1>         0.0571
     47 H18         4.0597    3.5829   -3.4169 H         1 <1>         0.3942
@<TRIPOS>BOND
     1    1    3 ar
     2    1    4 ar
     3    2    5 ar
     4    2    6 ar
     5    3    7 ar
     6    4    8 ar
     7    5    9 ar
     8    6   10 ar
     9    7   15 ar
    10    8   15 ar
    11    9   16 ar
    12   10   16 ar
    13   11   13 ar
    14   11   18 ar
    15   12   14 ar
    16   12   18 ar
    17   13   19 ar
    18   14   19 ar
    19   15   20 1
    20   16   22 1
    21   17   20 2
    22   17   21 1
    23   17   22 1
    24   18   24 1
    25   19   27 1
    26   20   27 1
    27   21   23 1
    28   21   25 2
    29   22   26 2
    30   23   28 am
    31   23   29 2
    32   25   27 1
    33   26   28 1
    34    1   30 1
    35    2   31 1
    36    3   32 1
    37    4   33 1
    38    5   34 1
    39    6   35 1
    40    7   36 1
    41    8   37 1
    42    9   38 1
    43   10   39 1
    44   11   40 1
    45   12   41 1
    46   13   42 1
    47   14   43 1
    48   24   44 1
    49   24   45 1
    50   24   46 1
    51   28   47 1
@<TRIPOS>Similarity
1.5324
@<TRIPOS>ShapeSim
0.8430
@<TRIPOS>PharmSim
0.6894
# END
# Name:		AO-476/43249988
# Created and modified by SHAFTS on Thu Jun  3 03:39:13 2010

# 

@<TRIPOS>MOLECULE
AO-476/43249988
   44    48     0
SMALL
USER_CHARGE


@<TRIPOS>ATOM
      1 C1          0.3953   -0.7425    3.2661 C.ar      1 <1>        -0.0980
      2 C2         -1.5198    2.5683    0.7696 C.ar      1 <1>        -0.1012
      3 C3          0.9067    0.5544    3.2214 C.ar      1 <1>        -0.0918
      4 C4          0.8344   -1.6973    2.3489 C.ar      1 <1>        -0.0958
      5 C5         -1.1492    1.3749    0.1499 C.ar      1 <1>        -0.0960
      6 C6         -0.6393    3.6501    0.7826 C.ar      1 <1>        -0.0947
      7 C7          1.8571    0.8966    2.2596 C.ar      1 <1>        -0.0744
      8 C8          1.7848   -1.3551    1.3869 C.ar      1 <1>        -0.0797
      9 C9          0.1019    1.2632   -0.4567 C.ar      1 <1>        -0.0719
     10 C10         0.6119    3.5384    0.1761 C.ar      1 <1>        -0.0714
     11 C11         5.1291   -1.1754    2.4035 C.ar      1 <1>        -0.0367
     12 C12         5.3336   -2.5759    0.4455 C.ar      1 <1>        -0.0389
     13 C13         5.6152   -2.2142    3.1973 C.ar      1 <1>        -0.0531
     14 C14         5.8197   -3.6148    1.2393 C.ar      1 <1>        -0.0543
     15 C15         2.2961   -0.0581    1.3423 C.ar      1 <1>        -0.0357
     16 C16         0.9825    2.3450   -0.4435 C.ar      1 <1>        -0.0150
     17 C17         3.2560    1.2390   -0.6501 C.2       1 <1>         0.0564
     18 C18         4.9882   -1.3563    1.0276 C.ar      1 <1>         0.0173
     19 C19         5.9604   -3.4339    2.6152 C.ar      1 <1>        -0.0032
     20 C20         3.2823    0.2967    0.3456 C.2       1 <1>         0.0294
     21 C21         4.5038    1.1314   -1.2788 C.2       1 <1>         0.1379
     22 C22         2.3062    2.2268   -1.0852 C.2       1 <1>         0.0483
     23 C23         4.8613    2.0058   -2.3623 C.2       1 <1>         0.1831
     24 N1          5.2746    0.1773   -0.7551 N.2       1 <1>        -0.2614
     25 N2          2.6329    3.0365   -2.0535 N.2       1 <1>        -0.2979
     26 N3          4.5015   -0.3159    0.2331 N.pl3     1 <1>        -0.2490
     27 N4          3.8627    2.9272   -2.6675 N.am      1 <1>        -0.2276
     28 O1          5.9382    1.9435   -2.9466 O.2       1 <1>        -0.4457
     29 Cl1         6.5625   -4.7146    3.5945 Cl        1 <1>        -0.1307
     30 H1         -0.3442   -1.0092    4.0156 H         1 <1>         0.1244
     31 H2         -2.4939    2.6552    1.2418 H         1 <1>         0.1207
     32 H3          0.5645    1.2978    3.9356 H         1 <1>         0.1250
     33 H4          0.4371   -2.7076    2.3844 H         1 <1>         0.1225
     34 H5         -1.8348    0.5327    0.1400 H         1 <1>         0.1196
     35 H6         -0.9280    4.5794    1.2649 H         1 <1>         0.1196
     36 H7          2.2480    1.9111    2.2394 H         1 <1>         0.1325
     37 H8          2.1161   -2.1104    0.6784 H         1 <1>         0.1242
     38 H9          0.3806    0.3286   -0.9367 H         1 <1>         0.1328
     39 H10         1.2899    4.3878    0.1926 H         1 <1>         0.1291
     40 H11         4.8639   -0.2300    2.8705 H         1 <1>         0.1566
     41 H12         5.2290   -2.7300   -0.6258 H         1 <1>         0.1517
     42 H13         5.7194   -2.0598    4.2682 H         1 <1>         0.1489
     43 H14         6.0845   -4.5599    0.7721 H         1 <1>         0.1489
     44 H15         4.0598    3.5838   -3.4164 H         1 <1>         0.3948
@<TRIPOS>BOND
     1    1    3 ar
     2    1    4 ar
     3    2    5 ar
     4    2    6 ar
     5    3    7 ar
     6    4    8 ar
     7    5    9 ar
     8    6   10 ar
     9    7   15 ar
    10    8   15 ar
    11    9   16 ar
    12   10   16 ar
    13   11   13 ar
    14   11   18 ar
    15   12   14 ar
    16   12   18 ar
    17   13   19 ar
    18   14   19 ar
    19   15   20 1
    20   16   22 1
    21   17   20 2
    22   17   21 1
    23   17   22 1
    24   18   26 1
    25   19   29 1
    26   20   26 1
    27   21   23 1
    28   21   24 2
    29   22   25 2
    30   23   27 am
    31   23   28 2
    32   24   26 1
    33   25   27 1
    34    1   30 1
    35    2   31 1
    36    3   32 1
    37    4   33 1
    38    5   34 1
    39    6   35 1
    40    7   36 1
    41    8   37 1
    42    9   38 1
    43   10   39 1
    44   11   40 1
    45   12   41 1
    46   13   42 1
    47   14   43 1
    48   27   44 1
@<TRIPOS>Similarity
1.5316
@<TRIPOS>ShapeSim
0.8422
@<TRIPOS>PharmSim
0.6894
# END
# Name:		AM-807/12426015
# Created and modified by SHAFTS on Thu Jun  3 03:39:13 2010

# 

@<TRIPOS>MOLECULE
AM-807/12426015
   45    48     0
SMALL
USER_CHARGE


@<TRIPOS>ATOM
      1 C1          5.6738   -2.7534    3.1054 C.2       1 <1>        -0.1008
      2 C2          0.4795    0.9424   -0.3173 C.ar      1 <1>        -0.0745
      3 C3          1.5019    3.0922    0.0952 C.ar      1 <1>        -0.0752
      4 C4         -0.7842    1.5198   -0.1941 C.ar      1 <1>        -0.0419
      5 C5          0.2380    3.6696    0.2183 C.ar      1 <1>        -0.0421
      6 C6          5.1911   -1.5024    2.6237 C.2       1 <1>        -0.0813
      7 C7          3.3231    0.1060    0.5552 C.ar      1 <1>        -0.0159
      8 C8          5.8744   -3.6580    2.0860 C.2       1 <1>        -0.0420
      9 C9          3.8330    1.5722   -1.2893 C.ar      1 <1>         0.0173
     10 C10         1.6226    1.7286   -0.1726 C.ar      1 <1>        -0.0591
     11 C11         2.9309    1.1309   -0.3000 C.ar      1 <1>        -0.0369
     12 C12         3.7401    2.5813   -2.3008 C.2       1 <1>        -0.0326
     13 C13        -0.9050    2.8833    0.0737 C.ar      1 <1>         0.0665
     14 C14         4.5863   -0.4352    0.3943 C.ar      1 <1>         0.0167
     15 C15         5.0414   -1.4983    1.2541 C.2       1 <1>         0.0181
     16 C16         4.8843    2.6742   -3.0623 C.2       1 <1>         0.1307
     17 C17         5.0703    0.9383   -1.3370 C.ar      1 <1>         0.0680
     18 C18         5.1801    3.5466   -4.1550 C.2       1 <1>         0.1896
     19 C19         8.6162    4.3058   -5.0421 C.3       1 <1>        -0.0384
     20 C20         6.7562    4.5538   -6.7246 C.3       1 <1>        -0.0346
     21 C21         7.1175    4.4617   -5.2499 C.3       1 <1>         0.0208
     22 N1          5.4943   -0.0576   -0.5309 N.ar      1 <1>        -0.3394
     23 N2          2.6578    3.3723   -2.5083 N.pl3     1 <1>        -0.3968
     24 O1          4.4055    4.4134   -4.6214 O.2       1 <1>        -0.4531
     25 O2          6.4420    3.3414   -4.6682 O.3       1 <1>        -0.3471
     26 F1         -2.1186    3.4377    0.1920 F         1 <1>        -0.2635
     27 S1          5.4816   -2.9984    0.5553 S.3       1 <1>        -0.1149
     28 S2          6.0767    1.5524   -2.5690 S.3       1 <1>        -0.0215
     29 H1          5.8649   -2.9787    4.1464 H         1 <1>         0.1179
     30 H2          0.5571   -0.1221   -0.5260 H         1 <1>         0.1443
     31 H3          2.3833    3.7185    0.2105 H         1 <1>         0.1437
     32 H4         -1.6744    0.9078   -0.3065 H         1 <1>         0.1360
     33 H5          0.1433    4.7311    0.4266 H         1 <1>         0.1370
     34 H6          4.9687   -0.6522    3.2567 H         1 <1>         0.1385
     35 H7          2.6526   -0.2587    1.3293 H         1 <1>         0.1483
     36 H8          6.2334   -4.6743    2.1668 H         1 <1>         0.1740
     37 H9          8.9968    3.4141   -5.5495 H         1 <1>         0.0442
     38 H10         9.1476    5.1821   -5.4286 H         1 <1>         0.0500
     39 H11         8.8614    4.2343   -3.9767 H         1 <1>         0.0399
     40 H12         7.0925    3.6681   -7.2721 H         1 <1>         0.0479
     41 H13         7.2167    5.4396   -7.1752 H         1 <1>         0.0578
     42 H14         5.6741    4.6591   -6.8594 H         1 <1>         0.0505
     43 H15         6.7683    5.3606   -4.7313 H         1 <1>         0.1123
     44 H16         1.7934    3.2612   -1.9644 H         1 <1>         0.2658
     45 H17         2.6226    4.0508   -3.2788 H         1 <1>         0.2752
@<TRIPOS>BOND
     1    1    6 1
     2    1    8 2
     3    2    4 ar
     4    2   10 ar
     5    3    5 ar
     6    3   10 ar
     7    4   13 ar
     8    5   13 ar
     9    6   15 2
    10    7   11 ar
    11    7   14 ar
    12    8   27 1
    13    9   11 ar
    14    9   12 1
    15    9   17 ar
    16   10   11 1
    17   12   16 2
    18   12   23 1
    19   13   26 1
    20   14   15 1
    21   14   22 ar
    22   15   27 1
    23   16   18 1
    24   16   28 1
    25   17   22 ar
    26   17   28 1
    27   18   24 2
    28   18   25 1
    29   19   21 1
    30   20   21 1
    31   21   25 1
    32    1   29 1
    33    2   30 1
    34    3   31 1
    35    4   32 1
    36    5   33 1
    37    6   34 1
    38    7   35 1
    39    8   36 1
    40   19   37 1
    41   19   38 1
    42   19   39 1
    43   20   40 1
    44   20   41 1
    45   20   42 1
    46   21   43 1
    47   23   44 1
    48   23   45 1
@<TRIPOS>Similarity
1.5297
@<TRIPOS>ShapeSim
0.8935
@<TRIPOS>PharmSim
0.6362
# END
# Name:		AJ-916/40989362
# Created and modified by SHAFTS on Thu Jun  3 03:39:13 2010

# 

@<TRIPOS>MOLECULE
AJ-916/40989362
   36    39     0
SMALL
USER_CHARGE


@<TRIPOS>ATOM
      1 C1         -1.0477    1.3480    0.1457 C.ar      1 <1>        -0.0856
      2 C2          0.2036    1.2194   -0.4570 C.ar      1 <1>        -0.0688
      3 C3          4.0991   -1.7995    2.0127 C.ar      1 <1>        -0.0429
      4 C4          6.2175   -1.8844    0.8541 C.ar      1 <1>        -0.0366
      5 C5         -1.4162    2.5565    0.7367 C.ar      1 <1>        -0.0768
      6 C6          4.5137   -2.8377    2.8468 C.ar      1 <1>        -0.0651
      7 C7          6.6321   -2.9225    1.6883 C.ar      1 <1>        -0.0616
      8 C8          0.7180    3.5079    0.1224 C.ar      1 <1>        -0.0470
      9 C9          3.3248    0.3402    0.2475 C.2       1 <1>         0.0132
     10 C10         3.3729    1.2721   -0.7483 C.ar      1 <1>         0.0276
     11 C11         1.0865    2.2992   -0.4687 C.ar      1 <1>        -0.0125
     12 C12         4.6619    1.1528   -1.3839 C.ar      1 <1>         0.0516
     13 C13         4.9510   -1.3229    1.0163 C.ar      1 <1>         0.0081
     14 C14         5.7803   -3.3992    2.6847 C.ar      1 <1>        -0.0299
     15 C15        -0.5334    3.6364    0.7251 C.ar      1 <1>        -0.0289
     16 C16         2.3693    2.1672   -1.0866 C.ar      1 <1>         0.0426
     17 C17         4.9980    1.9936   -2.4548 C.ar      1 <1>         0.0434
     18 C18         6.2766    1.9929   -3.2087 C.3       1 <1>         0.0164
     19 N1          5.3597    0.1756   -0.7802 N.2       1 <1>        -0.2949
     20 N2          2.7244    2.9675   -2.1269 N.ar      1 <1>        -0.2722
     21 N3          4.0207    2.8793   -2.7990 N.ar      1 <1>        -0.2712
     22 N4          4.5365   -0.2852    0.1832 N.pl3     1 <1>        -0.2689
     23 Br1         6.3423   -4.8052    3.8158 Br        1 <1>        -0.0995
     24 Br2        -1.0327    5.2734    1.5276 Br        1 <1>        -0.1048
     25 H1         -1.7351    0.5073    0.1549 H         1 <1>         0.1331
     26 H2          0.4756    0.2714   -0.9148 H         1 <1>         0.1339
     27 H3          3.1091   -1.3714    2.1499 H         1 <1>         0.1445
     28 H4          6.8913   -1.5223    0.0814 H         1 <1>         0.1577
     29 H5         -2.3952    2.6402    1.2021 H         1 <1>         0.1407
     30 H6          3.8382   -3.1977    3.6186 H         1 <1>         0.1517
     31 H7          7.6223   -3.3492    1.5488 H         1 <1>         0.1514
     32 H8          1.4076    4.3499    0.1128 H         1 <1>         0.1563
     33 H9          2.5693    0.0687    0.9740 H         1 <1>         0.2401
     34 H10         6.2222    1.3076   -4.0665 H         1 <1>         0.0865
     35 H11         6.5246    2.9959   -3.5874 H         1 <1>         0.0817
     36 H12         7.1208    1.6817   -2.5751 H         1 <1>         0.0868
@<TRIPOS>BOND
     1    1    2 ar
     2    1    5 ar
     3    2   11 ar
     4    3    6 ar
     5    3   13 ar
     6    4    7 ar
     7    4   13 ar
     8    5   15 ar
     9    6   14 ar
    10    7   14 ar
    11    8   11 ar
    12    8   15 ar
    13    9   10 2
    14    9   22 1
    15   10   12 ar
    16   10   16 ar
    17   11   16 1
    18   12   17 ar
    19   12   19 2
    20   13   22 1
    21   14   23 1
    22   15   24 1
    23   16   20 ar
    24   17   18 1
    25   17   21 ar
    26   19   22 1
    27   20   21 ar
    28    1   25 1
    29    2   26 1
    30    3   27 1
    31    4   28 1
    32    5   29 1
    33    6   30 1
    34    7   31 1
    35    8   32 1
    36    9   33 1
    37   18   34 1
    38   18   35 1
    39   18   36 1
@<TRIPOS>Similarity
1.5297
@<TRIPOS>ShapeSim
0.8761
@<TRIPOS>PharmSim
0.6536
# END
# Name:		AG-690/11480698
# Created and modified by SHAFTS on Thu Jun  3 03:39:13 2010

# 

@<TRIPOS>MOLECULE
AG-690/11480698
   26    28     0
SMALL
USER_CHARGE


@<TRIPOS>ATOM
      1 C1          1.0979    2.9499    0.7271 C.ar      1 <1>        -0.0786
      2 C2          0.1840    1.3411   -0.8265 C.ar      1 <1>        -0.0697
      3 C3         -0.1267    3.6170    0.7566 C.ar      1 <1>        -0.0721
      4 C4         -1.0406    2.0082   -0.7970 C.ar      1 <1>        -0.0646
      5 C5          2.7680    0.1109    0.8052 C.2       1 <1>         0.0008
      6 C6          1.2533    1.8120   -0.0646 C.ar      1 <1>        -0.0641
      7 C7          2.5175    1.1230   -0.0950 C.2       1 <1>        -0.0442
      8 C8          3.6196    1.3371   -0.9701 C.2       1 <1>         0.0613
      9 C9         -1.1959    3.1462   -0.0054 C.ar      1 <1>        -0.0170
     10 C10         4.6763    0.4801   -0.7084 C.2       1 <1>         0.0588
     11 C11         5.9771    1.2948   -2.3218 C.2       1 <1>         0.0444
     12 C12         3.7478    2.3070   -2.0501 C.2       1 <1>         0.1258
     13 N1          5.8720    0.4272   -1.3611 N.2       1 <1>        -0.3382
     14 N2          4.9931    2.2074   -2.6842 N.am      1 <1>        -0.4090
     15 N3          5.2745    3.0685   -3.7373 N.3       1 <1>         0.3951
     16 O1          2.8595    3.1006   -2.3449 O.2       1 <1>        -0.4529
     17 S1          4.3231   -0.5723    0.5922 S.3       1 <1>        -0.0485
     18 Cl1        -2.7069    3.9693    0.0294 Cl        1 <1>        -0.1464
     19 H1          1.9213    3.3302    1.3273 H         1 <1>         0.1333
     20 H2          0.2895    0.4555   -1.4487 H         1 <1>         0.1408
     21 H3         -0.2334    4.5025    1.3779 H         1 <1>         0.1304
     22 H4         -1.8645    1.6306   -1.3970 H         1 <1>         0.1325
     23 H5          2.1191   -0.2694    1.5828 H         1 <1>         0.1854
     24 H6          6.8977    1.3515   -2.9251 H         1 <1>         0.3246
     25 H7          6.2781    3.2983   -3.7646 H         1 <1>         0.0367
     26 H8          4.8052    3.9749   -3.6016 H         1 <1>         0.0354
@<TRIPOS>BOND
     1    1    3 ar
     2    1    6 ar
     3    2    4 ar
     4    2    6 ar
     5    3    9 ar
     6    4    9 ar
     7    5    7 2
     8    5   17 1
     9    6    7 1
    10    7    8 1
    11    8   10 2
    12    8   12 1
    13    9   18 1
    14   10   13 1
    15   10   17 1
    16   11   13 2
    17   11   14 1
    18   12   14 am
    19   12   16 2
    20   14   15 1
    21    1   19 1
    22    2   20 1
    23    3   21 1
    24    4   22 1
    25    5   23 1
    26   11   24 1
    27   15   25 1
    28   15   26 1
@<TRIPOS>Similarity
1.5283
@<TRIPOS>ShapeSim
0.8406
@<TRIPOS>PharmSim
0.6877
# END
# Name:		AH-262/11508001
# Created and modified by SHAFTS on Thu Jun  3 03:39:13 2010

# 

@<TRIPOS>MOLECULE
AH-262/11508001
   35    38     0
SMALL
USER_CHARGE


@<TRIPOS>ATOM
      1 C1         -1.1632    3.0062    0.1181 C.ar      1 <1>        -0.1036
      2 C2          6.0987   -3.3318    2.4259 C.ar      1 <1>        -0.0944
      3 C3         -0.0486    3.7141   -0.3316 C.ar      1 <1>        -0.0988
      4 C4         -1.0355    1.6684    0.4918 C.ar      1 <1>        -0.0954
      5 C5          5.8621   -3.4464    1.0560 C.ar      1 <1>        -0.0846
      6 C6          5.6861   -2.1893    3.1117 C.ar      1 <1>        -0.0864
      7 C7          1.1936    3.0843   -0.4077 C.ar      1 <1>        -0.0761
      8 C8          0.2067    1.0386    0.4157 C.ar      1 <1>        -0.0716
      9 C9          5.2132   -2.4186    0.3719 C.ar      1 <1>        -0.0477
     10 C10         5.0371   -1.1615    2.4275 C.ar      1 <1>        -0.0498
     11 C11         1.3212    1.7464   -0.0340 C.ar      1 <1>        -0.0281
     12 C12         3.6503    1.3687   -1.0117 C.2       1 <1>         0.0773
     13 C13         4.8006   -1.2761    1.0576 C.ar      1 <1>         0.0109
     14 C14         2.6039    1.0955   -0.1127 C.2       1 <1>         0.0406
     15 C15         4.6410    0.4785   -0.6701 C.2       1 <1>         0.1013
     16 C16         5.1262    2.2350   -2.7788 C.2       1 <1>         0.0282
     17 C17         6.0937    1.3651   -2.4446 C.2       1 <1>         0.0341
     18 C18         3.8020    2.3171   -2.0856 C.2       1 <1>         0.1224
     19 C19         5.9131    0.3899   -1.3262 C.2       1 <1>         0.1459
     20 N1          2.9049    0.1069    0.7369 N.2       1 <1>        -0.2818
     21 N2          4.1517   -0.2490    0.3730 N.pl3     1 <1>        -0.2529
     22 O1          2.9476    3.1262   -2.4233 O.2       1 <1>        -0.4287
     23 O2          6.8143   -0.3928   -1.0438 O.2       1 <1>        -0.4222
     24 H1         -2.1302    3.4968    0.1784 H         1 <1>         0.1198
     25 H2          6.6023   -4.1324    2.9593 H         1 <1>         0.1298
     26 H3         -0.1475    4.7561   -0.6215 H         1 <1>         0.1179
     27 H4         -1.9032    1.1179    0.8431 H         1 <1>         0.1203
     28 H5          6.1820   -4.3365    0.5221 H         1 <1>         0.1327
     29 H6          5.8694   -2.1014    4.1786 H         1 <1>         0.1310
     30 H7          2.0531    3.6496   -0.7604 H         1 <1>         0.1296
     31 H8          0.2896   -0.0050    0.7108 H         1 <1>         0.1374
     32 H9          5.0342   -2.5210   -0.6958 H         1 <1>         0.1481
     33 H10         4.7202   -0.2768    2.9744 H         1 <1>         0.1444
     34 H11         5.2832    2.9327   -3.5955 H         1 <1>         0.1756
     35 H12         7.0371    1.3454   -2.9788 H         1 <1>         0.1750
@<TRIPOS>BOND
     1    1    3 ar
     2    1    4 ar
     3    2    5 ar
     4    2    6 ar
     5    3    7 ar
     6    4    8 ar
     7    5    9 ar
     8    6   10 ar
     9    7   11 ar
    10    8   11 ar
    11    9   13 ar
    12   10   13 ar
    13   11   14 1
    14   12   14 1
    15   12   15 2
    16   12   18 1
    17   13   21 1
    18   14   20 2
    19   15   19 1
    20   15   21 1
    21   16   17 2
    22   16   18 1
    23   17   19 1
    24   18   22 2
    25   19   23 2
    26   20   21 1
    27    1   24 1
    28    2   25 1
    29    3   26 1
    30    4   27 1
    31    5   28 1
    32    6   29 1
    33    7   30 1
    34    8   31 1
    35    9   32 1
    36   10   33 1
    37   16   34 1
    38   17   35 1
@<TRIPOS>Similarity
1.5273
@<TRIPOS>ShapeSim
0.9631
@<TRIPOS>PharmSim
0.5642
# END
# Name:		AO-476/40672138
# Created and modified by SHAFTS on Thu Jun  3 03:39:13 2010

# 

@<TRIPOS>MOLECULE
AO-476/40672138
   35    37     0
SMALL
USER_CHARGE


@<TRIPOS>ATOM
      1 C1          6.1135   -3.4399    2.5298 C.ar      1 <1>        -0.0897
      2 C2          6.3593   -3.1857    1.1805 C.ar      1 <1>        -0.0834
      3 C3          5.1786   -2.6728    3.2250 C.ar      1 <1>        -0.0818
      4 C4          5.6704   -2.1644    0.5264 C.ar      1 <1>        -0.0518
      5 C5          4.4896   -1.6515    2.5709 C.ar      1 <1>        -0.0491
      6 C6          2.4720    0.9457    0.1222 C.2       1 <1>         0.0613
      7 C7          5.8096    1.1571   -2.0658 C.ar      1 <1>         0.1424
      8 C8          3.4937    1.2542   -0.8012 C.ar      1 <1>         0.1195
      9 C9          4.7354   -1.3973    1.2216 C.ar      1 <1>         0.0102
     10 C10         4.5084    0.3673   -0.4777 C.ar      1 <1>         0.1063
     11 C11         3.6836    2.1516   -1.8458 C.ar      1 <1>         0.1010
     12 C12         6.0742    2.7716   -4.5865 C.2       1 <1>        -0.0132
     13 C13         6.3262    5.3012   -4.5442 C.3       1 <1>        -0.0083
     14 N1          2.8033   -0.0455    0.9560 N.2       1 <1>        -0.2676
     15 N2          5.7072    0.2576   -1.0704 N.ar      1 <1>        -0.2684
     16 N3          4.0471   -0.3767    0.5670 N.pl3     1 <1>        -0.2265
     17 N4          4.8780    2.0431   -2.4379 N.ar      1 <1>        -0.2319
     18 N5          2.7278    3.0907   -2.2569 N.pl3     1 <1>        -0.3129
     19 N6          6.6078    3.9692   -5.0454 N.pl3     1 <1>        -0.3485
     20 N7          5.2050    2.9374   -3.5599 N.pl3     1 <1>        -0.2523
     21 S1          6.6259    1.3640   -5.3191 S.2       1 <1>        -0.3025
     22 H1          6.6483   -4.2361    3.0390 H         1 <1>         0.1361
     23 H2          7.0861   -3.7837    0.6386 H         1 <1>         0.1373
     24 H3          4.9868   -2.8723    4.2753 H         1 <1>         0.1380
     25 H4          5.8708   -1.9772   -0.5258 H         1 <1>         0.1405
     26 H5          3.7631   -1.0617    3.1245 H         1 <1>         0.1464
     27 H6          1.4975    1.4023    0.2229 H         1 <1>         0.2712
     28 H7          6.7408    1.1625   -2.6214 H         1 <1>         0.3798
     29 H8          5.4689    5.7275   -5.0715 H         1 <1>         0.1126
     30 H9          7.1916    5.9525   -4.6949 H         1 <1>         0.1134
     31 H10         6.0985    5.2627   -3.4756 H         1 <1>         0.1182
     32 H11         1.8259    3.1073   -1.8155 H         1 <1>         0.3134
     33 H12         2.9166    3.6761   -3.0508 H         1 <1>         0.3292
     34 H13         7.2548    3.9058   -5.8255 H         1 <1>         0.3227
     35 H14         4.7308    3.8083   -3.4572 H         1 <1>         0.3885
@<TRIPOS>BOND
     1    1    2 ar
     2    1    3 ar
     3    2    4 ar
     4    3    5 ar
     5    4    9 ar
     6    5    9 ar
     7    6    8 1
     8    6   14 2
     9    7   15 ar
    10    7   17 ar
    11    8   10 ar
    12    8   11 ar
    13    9   16 1
    14   10   15 ar
    15   10   16 1
    16   11   17 ar
    17   11   18 1
    18   12   19 1
    19   12   20 1
    20   12   21 2
    21   13   19 1
    22   14   16 1
    23   17   20 1
    24    1   22 1
    25    2   23 1
    26    3   24 1
    27    4   25 1
    28    5   26 1
    29    6   27 1
    30    7   28 1
    31   13   29 1
    32   13   30 1
    33   13   31 1
    34   18   32 1
    35   18   33 1
    36   19   34 1
    37   20   35 1
@<TRIPOS>Similarity
1.5262
@<TRIPOS>ShapeSim
0.7727
@<TRIPOS>PharmSim
0.7534
# END
# Name:		AF-399/15336046
# Created and modified by SHAFTS on Thu Jun  3 03:39:13 2010

# 

@<TRIPOS>MOLECULE
AF-399/15336046
   26    29     0
SMALL
USER_CHARGE


@<TRIPOS>ATOM
      1 C1         -1.2673    3.1571    0.0231 C.ar      1 <1>        -0.1049
      2 C2         -1.2357    1.7795   -0.1929 C.ar      1 <1>        -0.1035
      3 C3         -0.0786    3.8592    0.2230 C.ar      1 <1>        -0.0965
      4 C4         -0.0155    1.1038   -0.2091 C.ar      1 <1>        -0.0912
      5 C5          1.1416    3.1836    0.2069 C.ar      1 <1>        -0.0838
      6 C6          2.6829    0.0981    0.8788 C.2       1 <1>         0.0073
      7 C7          4.8466    3.1232   -3.5404 C.2       1 <1>         0.0701
      8 C8          1.1732    1.8059   -0.0092 C.ar      1 <1>        -0.0718
      9 C9          2.4322    1.1091   -0.0256 C.2       1 <1>        -0.0396
     10 C10         3.5413    1.3001   -0.8763 C.2       1 <1>         0.0295
     11 C11         4.6103    0.4527   -0.6251 C.2       1 <1>         0.0646
     12 C12         3.7357    2.1924   -1.9184 C.2       1 <1>         0.0812
     13 C13         5.9528    1.2661   -2.2611 C.2       1 <1>         0.0738
     14 N1          3.6696    3.7121   -3.4602 N.2       1 <1>        -0.2676
     15 N2          2.9595    3.1183   -2.4249 N.2       1 <1>        -0.2593
     16 N3          5.8146    0.4068   -1.2864 N.2       1 <1>        -0.3263
     17 N4          4.9314    2.1578   -2.5867 N.pl3     1 <1>        -0.2490
     18 S1          4.2429   -0.5937    0.6785 S.3       1 <1>        -0.0459
     19 H1         -2.2172    3.6835    0.0347 H         1 <1>         0.1165
     20 H2         -2.1610    1.2329   -0.3498 H         1 <1>         0.1152
     21 H3         -0.1033    4.9320    0.3899 H         1 <1>         0.1185
     22 H4         -0.0074    0.0297   -0.3788 H         1 <1>         0.1214
     23 H5          2.0594    3.7453    0.3642 H         1 <1>         0.1251
     24 H6          2.0309   -0.2808    1.6546 H         1 <1>         0.1937
     25 H7          5.6370    3.3497   -4.2414 H         1 <1>         0.2909
     26 H8          6.8852    1.3011   -2.8467 H         1 <1>         0.3319
@<TRIPOS>BOND
     1    1    2 ar
     2    1    3 ar
     3    2    4 ar
     4    3    5 ar
     5    4    8 ar
     6    5    8 ar
     7    6    9 2
     8    6   18 1
     9    7   14 2
    10    7   17 1
    11    8    9 1
    12    9   10 1
    13   10   11 2
    14   10   12 1
    15   11   16 1
    16   11   18 1
    17   12   15 2
    18   12   17 1
    19   13   16 2
    20   13   17 1
    21   14   15 1
    22    1   19 1
    23    2   20 1
    24    3   21 1
    25    4   22 1
    26    5   23 1
    27    6   24 1
    28    7   25 1
    29   13   26 1
@<TRIPOS>Similarity
1.5261
@<TRIPOS>ShapeSim
0.8409
@<TRIPOS>PharmSim
0.6852
# END
# Name:		AE-848/34408043
# Created and modified by SHAFTS on Thu Jun  3 03:39:13 2010

# 

@<TRIPOS>MOLECULE
AE-848/34408043
   40    42     0
SMALL
USER_CHARGE


@<TRIPOS>ATOM
      1 C1          3.0412    2.8446   -2.1780 C.1       1 <1>         0.0757
      2 C2          5.9456   -3.4140    2.6033 C.ar      1 <1>        -0.1034
      3 C3          5.0277   -2.5202    3.1548 C.ar      1 <1>        -0.0994
      4 C4          6.3486   -3.2694    1.2757 C.ar      1 <1>        -0.0970
      5 C5          4.5125   -1.4819    2.3788 C.ar      1 <1>        -0.0793
      6 C6          5.8334   -2.2310    0.4997 C.ar      1 <1>        -0.0749
      7 C7          0.2242    0.9677   -0.2112 C.ar      1 <1>        -0.0762
      8 C8          1.1693    3.1467    0.2313 C.ar      1 <1>        -0.0845
      9 C9         -1.0550    1.4773    0.0120 C.ar      1 <1>        -0.0520
     10 C10        -0.1099    3.6562    0.4545 C.ar      1 <1>        -0.0645
     11 C11         3.1105    0.2370    0.4776 C.ar      1 <1>        -0.0198
     12 C12         3.4891    1.7734   -1.3336 C.ar      1 <1>         0.1144
     13 C13         1.3363    1.8025   -0.1014 C.ar      1 <1>        -0.0576
     14 C14         4.9155   -1.3373    1.0511 C.ar      1 <1>        -0.0323
     15 C15         2.6628    1.2743   -0.3329 C.ar      1 <1>        -0.0111
     16 C16        -1.2220    2.8214    0.3447 C.ar      1 <1>        -0.0109
     17 C17         4.3824   -0.2625    0.2485 C.ar      1 <1>        -0.0038
     18 C18         4.7442    1.2053   -1.4815 C.ar      1 <1>         0.0540
     19 C19        -2.5691    4.7015    0.8984 C.3       1 <1>         0.0249
     20 C20         5.4130    0.6732   -4.0858 C.3       1 <1>         0.0095
     21 N1          2.6791    3.7104   -2.8606 N.1       1 <1>        -0.3602
     22 N2          5.2138    0.1965   -0.7136 N.ar      1 <1>        -0.3617
     23 O1         -2.4701    3.3186    0.5618 O.3       1 <1>        -0.4157
     24 S1          5.8969    1.7662   -2.7341 S.3       1 <1>        -0.1287
     25 H1          6.3478   -4.2213    3.2082 H         1 <1>         0.1212
     26 H2          4.7151   -2.6317    4.1889 H         1 <1>         0.1196
     27 H3          7.0643   -3.9641    0.8461 H         1 <1>         0.1189
     28 H4          3.7979   -0.7932    2.8233 H         1 <1>         0.1295
     29 H5          6.1573   -2.1306   -0.5335 H         1 <1>         0.1381
     30 H6          0.3381   -0.0822   -0.4699 H         1 <1>         0.1375
     31 H7          2.0261    3.8102    0.3206 H         1 <1>         0.1383
     32 H8         -1.9176    0.8222   -0.0752 H         1 <1>         0.1335
     33 H9         -0.2340    4.7043    0.7132 H         1 <1>         0.1170
     34 H10         2.4846   -0.1707    1.2667 H         1 <1>         0.1491
     35 H11        -3.6188    4.9675    1.0448 H         1 <1>         0.0902
     36 H12        -2.1380    5.3047    0.0954 H         1 <1>         0.0905
     37 H13        -2.0172    4.8825    1.8239 H         1 <1>         0.1230
     38 H14         6.0280    0.8757   -4.9661 H         1 <1>         0.0797
     39 H15         4.3629    0.8387   -4.3391 H         1 <1>         0.0888
     40 H16         5.5486   -0.3691   -3.7871 H         1 <1>         0.0797
@<TRIPOS>BOND
     1    1   12 1
     2    1   21 3
     3    2    3 ar
     4    2    4 ar
     5    3    5 ar
     6    4    6 ar
     7    5   14 ar
     8    6   14 ar
     9    7    9 ar
    10    7   13 ar
    11    8   10 ar
    12    8   13 ar
    13    9   16 ar
    14   10   16 ar
    15   11   15 ar
    16   11   17 ar
    17   12   15 ar
    18   12   18 ar
    19   13   15 1
    20   14   17 1
    21   16   23 1
    22   17   22 ar
    23   18   22 ar
    24   18   24 1
    25   19   23 1
    26   20   24 1
    27    2   25 1
    28    3   26 1
    29    4   27 1
    30    5   28 1
    31    6   29 1
    32    7   30 1
    33    8   31 1
    34    9   32 1
    35   10   33 1
    36   11   34 1
    37   19   35 1
    38   19   36 1
    39   19   37 1
    40   20   38 1
    41   20   39 1
    42   20   40 1
@<TRIPOS>Similarity
1.5220
@<TRIPOS>ShapeSim
0.9376
@<TRIPOS>PharmSim
0.5844
# END
# Name:		AH-487/40652398
# Created and modified by SHAFTS on Thu Jun  3 03:39:13 2010

# 

@<TRIPOS>MOLECULE
AH-487/40652398
   59    63     0
SMALL
USER_CHARGE


@<TRIPOS>ATOM
      1 C1          9.8205    0.8316   -4.0702 C.ar      1 <1>        -0.1017
      2 C2          6.0820   -3.3468    2.4511 C.ar      1 <1>        -0.0995
      3 C3          8.7198    1.2632   -4.8101 C.ar      1 <1>        -0.0977
      4 C4          9.6728    0.5169   -2.7193 C.ar      1 <1>        -0.0953
      5 C5          5.8426   -3.4590    1.0816 C.ar      1 <1>        -0.0901
      6 C6          5.6666   -2.2077    3.1408 C.ar      1 <1>        -0.0905
      7 C7          7.4712    1.3800   -4.1992 C.ar      1 <1>        -0.0772
      8 C8          8.4243    0.6339   -2.1084 C.ar      1 <1>        -0.0726
      9 C9          0.2171    1.2436   -0.7434 C.ar      1 <1>        -0.0727
     10 C10         1.1284    2.8540    0.8100 C.ar      1 <1>        -0.0726
     11 C11        -1.0244    1.8750   -0.6697 C.ar      1 <1>        -0.0904
     12 C12        -0.1132    3.4855    0.8837 C.ar      1 <1>        -0.0886
     13 C13         5.1879   -2.4319    0.4016 C.ar      1 <1>        -0.0516
     14 C14         5.0120   -1.1808    2.4609 C.ar      1 <1>        -0.0519
     15 C15         5.1209    2.1378   -2.6683 C.ar      1 <1>        -0.0093
     16 C16         3.6235    1.3577   -0.9818 C.ar      1 <1>         0.0522
     17 C17         7.3235    1.0654   -2.8484 C.ar      1 <1>        -0.0258
     18 C18         1.2935    1.7331   -0.0035 C.ar      1 <1>        -0.0257
     19 C19        -1.1897    2.9959    0.1439 C.ar      1 <1>        -0.1071
     20 C20         3.8785    2.2366   -2.0418 C.ar      1 <1>         0.0708
     21 C21         4.7726   -1.2928    1.0913 C.ar      1 <1>         0.0041
     22 C22         6.0290    1.1865   -2.2155 C.ar      1 <1>         0.0115
     23 C23         2.5763    1.0809   -0.0807 C.2       1 <1>         0.0483
     24 C24         4.6173    0.4570   -0.6316 C.ar      1 <1>         0.0692
     25 C25        -3.6177    2.6967    0.7444 C.3       1 <1>        -0.0616
     26 C26        -2.9725    4.1860   -1.1796 C.3       1 <1>        -0.0617
     27 C27        -2.5826    4.9181    1.1642 C.3       1 <1>        -0.0615
     28 C28        -2.5171    3.6710    0.2211 C.3       1 <1>        -0.0608
     29 C29         2.9012    3.2576   -2.5238 C.3       1 <1>         0.3674
     30 N1          5.8292    0.3160   -1.1964 N.ar      1 <1>        -0.3283
     31 N2          2.8722    0.0924    0.7698 N.2       1 <1>        -0.2734
     32 N3          4.1181   -0.2667    0.4108 N.pl3     1 <1>        -0.2421
     33 F1          3.3636    4.0056   -3.5679 F         1 <1>        -0.1813
     34 F2          1.7245    2.7215   -2.9615 F         1 <1>        -0.1760
     35 F3          2.5587    4.1532   -1.5533 F         1 <1>        -0.1752
     36 H1         10.7922    0.7391   -4.5464 H         1 <1>         0.1232
     37 H2          6.5899   -4.1469    2.9813 H         1 <1>         0.1219
     38 H3          8.8341    1.5065   -5.8623 H         1 <1>         0.1217
     39 H4         10.5293    0.1796   -2.1429 H         1 <1>         0.1204
     40 H5          6.1646   -4.3464    0.5447 H         1 <1>         0.1288
     41 H6          5.8522   -2.1219    4.2076 H         1 <1>         0.1281
     42 H7          6.6226    1.7175   -4.7898 H         1 <1>         0.1309
     43 H8          8.3243    0.3844   -1.0547 H         1 <1>         0.1402
     44 H9          0.3291    0.3704   -1.3818 H         1 <1>         0.1393
     45 H10         1.9578    3.2478    1.3929 H         1 <1>         0.1315
     46 H11        -1.8577    1.4877   -1.2499 H         1 <1>         0.1233
     47 H12        -0.2336    4.3584    1.5199 H         1 <1>         0.1261
     48 H13         5.0068   -2.5323   -0.6658 H         1 <1>         0.1374
     49 H14         4.6929   -0.2987    3.0108 H         1 <1>         0.1368
     50 H15         5.3698    2.7975   -3.4957 H         1 <1>         0.1587
     51 H16        -4.6049    3.1689    0.8107 H         1 <1>         0.0382
     52 H17        -3.7240    1.8235    0.0914 H         1 <1>         0.0403
     53 H18        -3.3554    2.3301    1.7439 H         1 <1>         0.0387
     54 H19        -3.9476    4.6827   -1.1270 H         1 <1>         0.0387
     55 H20        -2.2698    4.9058   -1.6155 H         1 <1>         0.0388
     56 H21        -3.0678    3.3473   -1.8794 H         1 <1>         0.0386
     57 H22        -3.5775    5.3788    1.1871 H         1 <1>         0.0386
     58 H23        -2.3328    4.6408    2.1950 H         1 <1>         0.0403
     59 H24        -1.8773    5.6912    0.8377 H         1 <1>         0.0383
@<TRIPOS>BOND
     1    1    3 ar
     2    1    4 ar
     3    2    5 ar
     4    2    6 ar
     5    3    7 ar
     6    4    8 ar
     7    5   13 ar
     8    6   14 ar
     9    7   17 ar
    10    8   17 ar
    11    9   11 ar
    12    9   18 ar
    13   10   12 ar
    14   10   18 ar
    15   11   19 ar
    16   12   19 ar
    17   13   21 ar
    18   14   21 ar
    19   15   20 ar
    20   15   22 ar
    21   16   20 ar
    22   16   23 1
    23   16   24 ar
    24   17   22 1
    25   18   23 1
    26   19   28 1
    27   20   29 1
    28   21   32 1
    29   22   30 ar
    30   23   31 2
    31   24   30 ar
    32   24   32 1
    33   25   28 1
    34   26   28 1
    35   27   28 1
    36   29   33 1
    37   29   34 1
    38   29   35 1
    39   31   32 1
    40    1   36 1
    41    2   37 1
    42    3   38 1
    43    4   39 1
    44    5   40 1
    45    6   41 1
    46    7   42 1
    47    8   43 1
    48    9   44 1
    49   10   45 1
    50   11   46 1
    51   12   47 1
    52   13   48 1
    53   14   49 1
    54   15   50 1
    55   25   51 1
    56   25   52 1
    57   25   53 1
    58   26   54 1
    59   26   55 1
    60   26   56 1
    61   27   57 1
    62   27   58 1
    63   27   59 1
@<TRIPOS>Similarity
1.5215
@<TRIPOS>ShapeSim
0.8301
@<TRIPOS>PharmSim
0.6914
# END
# Name:		AO-476/43201369
# Created and modified by SHAFTS on Thu Jun  3 03:39:13 2010

# 

@<TRIPOS>MOLECULE
AO-476/43201369
   43    47     0
SMALL
USER_CHARGE


@<TRIPOS>ATOM
      1 C1         -1.3938    2.6945    0.7588 C.ar      1 <1>        -0.1008
      2 C2          0.3772   -0.6090    3.1442 C.ar      1 <1>        -0.0961
      3 C3          5.8514   -3.3994    2.6478 C.ar      1 <1>        -0.0940
      4 C4         -1.0583    1.4684    0.1847 C.ar      1 <1>        -0.0952
      5 C5         -0.4845    3.7518    0.7269 C.ar      1 <1>        -0.0954
      6 C6          0.9184    0.6759    3.1021 C.ar      1 <1>        -0.0901
      7 C7          0.8067   -1.5768    2.2361 C.ar      1 <1>        -0.0940
      8 C8          5.5275   -2.1601    3.2001 C.ar      1 <1>        -0.0867
      9 C9          5.7348   -3.6022    1.2727 C.ar      1 <1>        -0.0851
     10 C10         0.1867    1.2994   -0.4212 C.ar      1 <1>        -0.0726
     11 C11         0.7604    3.5829    0.1209 C.ar      1 <1>        -0.0742
     12 C12         1.8890    0.9930    2.1519 C.ar      1 <1>        -0.0722
     13 C13         1.7773   -1.2597    1.2859 C.ar      1 <1>        -0.0771
     14 C14         5.0868   -1.1237    2.3771 C.ar      1 <1>        -0.0524
     15 C15         5.2941   -2.5657    0.4498 C.ar      1 <1>        -0.0495
     16 C16         3.3701    1.2774   -0.7462 C.ar      1 <1>         0.0521
     17 C17         1.0961    2.3566   -0.4531 C.ar      1 <1>        -0.0186
     18 C18         2.3185    0.0253    1.2437 C.ar      1 <1>        -0.0267
     19 C19         4.6464    1.1360   -1.4025 C.ar      1 <1>         0.0859
     20 C20         4.9702   -1.3264    1.0019 C.ar      1 <1>         0.0060
     21 C21         2.3727    2.1831   -1.0748 C.ar      1 <1>         0.0517
     22 C22         3.3267    0.3543    0.2580 C.2       1 <1>         0.0354
     23 C23         4.9752    1.9636   -2.4858 C.ar      1 <1>         0.1576
     24 N1          5.3415    0.1544   -0.8027 N.2       1 <1>        -0.2826
     25 N2          2.7205    2.9702   -2.1275 N.ar      1 <1>        -0.2587
     26 N3          4.0039    2.8595   -2.8207 N.ar      1 <1>        -0.2327
     27 N4          4.5288   -0.2876    0.1783 N.pl3     1 <1>        -0.2547
     28 Cl1         6.4393    1.8670   -3.3008 Cl        1 <1>        -0.0202
     29 H1         -2.3639    2.8263    1.2290 H         1 <1>         0.1218
     30 H2         -0.3782   -0.8561    3.8846 H         1 <1>         0.1270
     31 H3          6.1963   -4.2060    3.2879 H         1 <1>         0.1299
     32 H4         -1.7668    0.6457    0.2079 H         1 <1>         0.1206
     33 H5         -0.7457    4.7072    1.1724 H         1 <1>         0.1193
     34 H6          0.5837    1.4293    3.8092 H         1 <1>         0.1266
     35 H7          0.3860   -2.5777    2.2696 H         1 <1>         0.1243
     36 H8          5.6195   -2.0015    4.2706 H         1 <1>         0.1329
     37 H9          5.9886   -4.5671    0.8434 H         1 <1>         0.1330
     38 H10         0.4334    0.3375   -0.8645 H         1 <1>         0.1348
     39 H11         1.4588    4.4162    0.1033 H         1 <1>         0.1271
     40 H12         2.3030    1.9983    2.1336 H         1 <1>         0.1334
     41 H13         2.1008   -2.0249    0.5843 H         1 <1>         0.1263
     42 H14         4.8384   -0.1623    2.8203 H         1 <1>         0.1387
     43 H15         5.2086   -2.7372   -0.6205 H         1 <1>         0.1450
@<TRIPOS>BOND
     1    1    4 ar
     2    1    5 ar
     3    2    6 ar
     4    2    7 ar
     5    3    8 ar
     6    3    9 ar
     7    4   10 ar
     8    5   11 ar
     9    6   12 ar
    10    7   13 ar
    11    8   14 ar
    12    9   15 ar
    13   10   17 ar
    14   11   17 ar
    15   12   18 ar
    16   13   18 ar
    17   14   20 ar
    18   15   20 ar
    19   16   19 ar
    20   16   21 ar
    21   16   22 2
    22   17   21 1
    23   18   22 1
    24   19   23 ar
    25   19   24 2
    26   20   27 1
    27   21   25 ar
    28   22   27 1
    29   23   26 ar
    30   23   28 1
    31   24   27 1
    32   25   26 ar
    33    1   29 1
    34    2   30 1
    35    3   31 1
    36    4   32 1
    37    5   33 1
    38    6   34 1
    39    7   35 1
    40    8   36 1
    41    9   37 1
    42   10   38 1
    43   11   39 1
    44   12   40 1
    45   13   41 1
    46   14   42 1
    47   15   43 1
@<TRIPOS>Similarity
1.5214
@<TRIPOS>ShapeSim
0.8530
@<TRIPOS>PharmSim
0.6684
# END
# Name:		AM-879/15041697
# Created and modified by SHAFTS on Thu Jun  3 03:39:13 2010

# 

@<TRIPOS>MOLECULE
AM-879/15041697
   38    40     0
SMALL
USER_CHARGE


@<TRIPOS>ATOM
      1 C1          3.1036    2.8420   -2.2175 C.1       1 <1>         0.0645
      2 C2          5.9718   -3.4160    2.5895 C.ar      1 <1>        -0.1045
      3 C3          5.0546   -2.5197    3.1379 C.ar      1 <1>        -0.1000
      4 C4          6.3783   -3.2737    1.2627 C.ar      1 <1>        -0.0976
      5 C5         -0.0683    3.6715    0.4134 C.ar      1 <1>        -0.0979
      6 C6          4.5436   -1.4810    2.3595 C.ar      1 <1>        -0.0781
      7 C7          5.8675   -2.2350    0.4844 C.ar      1 <1>        -0.0735
      8 C8          1.2102    3.1584    0.1948 C.ar      1 <1>        -0.0843
      9 C9         -1.1822    2.8391    0.3026 C.ar      1 <1>        -0.0698
     10 C10         0.2610    0.9807   -0.2454 C.ar      1 <1>        -0.0419
     11 C11         3.1487    0.2414    0.4514 C.ar      1 <1>        -0.0254
     12 C12         3.5345    1.7741   -1.3615 C.ar      1 <1>         0.1252
     13 C13         4.9501   -1.3386    1.0328 C.ar      1 <1>        -0.0287
     14 C14         1.3749    1.8131   -0.1346 C.ar      1 <1>        -0.0500
     15 C15         2.7050    1.2783   -0.3618 C.ar      1 <1>        -0.0092
     16 C16        -1.0175    1.4938   -0.0269 C.ar      1 <1>        -0.0100
     17 C17         4.4202   -0.2610    0.2259 C.ar      1 <1>        -0.0040
     18 C18         4.7887    1.2032   -1.5058 C.ar      1 <1>         0.0236
     19 C19        -1.8644   -0.6829   -0.4747 C.3       1 <1>         0.0237
     20 N1          2.7552    3.7057   -2.9099 N.1       1 <1>        -0.3787
     21 N2          5.2545    0.1947   -0.7352 N.ar      1 <1>        -0.3507
     22 N3          5.6498    1.6945   -2.5198 N.pl3     1 <1>        -0.3644
     23 O1         -2.1045    0.6818   -0.1348 O.3       1 <1>        -0.4179
     24 H1          6.3708   -4.2237    3.1962 H         1 <1>         0.1198
     25 H2          4.7392   -2.6294    4.1713 H         1 <1>         0.1184
     26 H3          7.0936   -3.9704    0.8355 H         1 <1>         0.1175
     27 H4         -0.1966    4.7191    0.6695 H         1 <1>         0.1294
     28 H5          3.8294   -0.7902    2.8016 H         1 <1>         0.1304
     29 H6          6.1941   -2.1362   -0.5481 H         1 <1>         0.1399
     30 H7          2.0685    3.8200    0.2850 H         1 <1>         0.1247
     31 H8         -2.1759    3.2441    0.4740 H         1 <1>         0.1152
     32 H9          0.3798   -0.0699   -0.5028 H         1 <1>         0.1333
     33 H10         2.5202   -0.1632    1.2401 H         1 <1>         0.1346
     34 H11        -2.8153   -1.2187   -0.5281 H         1 <1>         0.1228
     35 H12        -1.2188   -1.1390    0.2801 H         1 <1>         0.0898
     36 H13        -1.3699   -0.7252   -1.4480 H         1 <1>         0.0892
     37 H14         5.3139    2.4047   -3.1323 H         1 <1>         0.2913
     38 H15         6.5327    1.2535   -2.6548 H         1 <1>         0.2934
@<TRIPOS>BOND
     1    1   12 1
     2    1   20 3
     3    2    3 ar
     4    2    4 ar
     5    3    6 ar
     6    4    7 ar
     7    5    8 ar
     8    5    9 ar
     9    6   13 ar
    10    7   13 ar
    11    8   14 ar
    12    9   16 ar
    13   10   14 ar
    14   10   16 ar
    15   11   15 ar
    16   11   17 ar
    17   12   15 ar
    18   12   18 ar
    19   13   17 1
    20   14   15 1
    21   16   23 1
    22   17   21 ar
    23   18   21 ar
    24   18   22 1
    25   19   23 1
    26    2   24 1
    27    3   25 1
    28    4   26 1
    29    5   27 1
    30    6   28 1
    31    7   29 1
    32    8   30 1
    33    9   31 1
    34   10   32 1
    35   11   33 1
    36   19   34 1
    37   19   35 1
    38   19   36 1
    39   22   37 1
    40   22   38 1
@<TRIPOS>Similarity
1.5211
@<TRIPOS>ShapeSim
0.9169
@<TRIPOS>PharmSim
0.6042
# END
# Name:		AG-690/40749470
# Created and modified by SHAFTS on Thu Jun  3 03:39:13 2010

# 

@<TRIPOS>MOLECULE
AG-690/40749470
   46    48     0
SMALL
USER_CHARGE


@<TRIPOS>ATOM
      1 C1          2.9918    2.8976   -2.2045 C.1       1 <1>         0.0751
      2 C2          5.0326   -1.1239    2.3900 C.ar      1 <1>        -0.0767
      3 C3          5.2663   -2.4821    0.4056 C.ar      1 <1>        -0.0631
      4 C4          0.1863    1.0090   -0.2320 C.ar      1 <1>        -0.0756
      5 C5          1.1259    3.1901    0.2119 C.ar      1 <1>        -0.0743
      6 C6          5.5535   -2.1622    3.1621 C.ar      1 <1>        -0.0646
      7 C7          5.7872   -3.5205    1.1778 C.ar      1 <1>        -0.0498
      8 C8         -1.0937    1.5139   -0.0034 C.ar      1 <1>        -0.0663
      9 C9         -0.1540    3.6950    0.4405 C.ar      1 <1>        -0.0662
     10 C10         3.0773    0.2859    0.4464 C.ar      1 <1>        -0.0198
     11 C11         3.4457    1.8266   -1.3632 C.ar      1 <1>         0.1150
     12 C12         1.2962    1.8471   -0.1243 C.ar      1 <1>        -0.0529
     13 C13         4.8890   -1.2839    1.0118 C.ar      1 <1>        -0.0292
     14 C14         2.6241    1.3232   -0.3609 C.ar      1 <1>        -0.0075
     15 C15         5.9307   -3.3604    2.5560 C.ar      1 <1>        -0.0116
     16 C16        -1.2639    2.8569    0.3328 C.ar      1 <1>        -0.0113
     17 C17         4.3500   -0.2094    0.2125 C.ar      1 <1>        -0.0048
     18 C18         4.7020    1.2625   -1.5160 C.ar      1 <1>         0.0574
     19 C19         8.1232    0.6146   -3.6587 C.3       1 <1>        -0.0520
     20 C20         8.0032    1.2159   -1.2164 C.3       1 <1>        -0.0503
     21 C21         6.8050   -5.5711    2.6258 C.3       1 <1>         0.0250
     22 C22         7.2279    0.7162   -2.4296 C.3       1 <1>        -0.0099
     23 N1          2.6250    3.7636   -2.8844 N.1       1 <1>        -0.3600
     24 N2          5.1770    0.2539   -0.7514 N.ar      1 <1>        -0.3590
     25 O1          6.4394   -4.3731    3.3095 O.3       1 <1>        -0.4155
     26 S1          5.8491    1.8290   -2.7713 S.3       1 <1>        -0.1257
     27 Cl1        -2.8435    3.4788    0.6162 Cl        1 <1>        -0.1376
     28 H1          4.7431   -0.1957    2.8768 H         1 <1>         0.1389
     29 H2          5.1607   -2.6222   -0.6675 H         1 <1>         0.1532
     30 H3          0.3029   -0.0402   -0.4931 H         1 <1>         0.1352
     31 H4          1.9813    3.8558    0.3006 H         1 <1>         0.1415
     32 H5          5.6632   -2.0316    4.2352 H         1 <1>         0.1153
     33 H6          6.0796   -4.4516    0.7002 H         1 <1>         0.1312
     34 H7         -1.9498    0.8492   -0.0890 H         1 <1>         0.1379
     35 H8         -0.2718    4.7434    0.7029 H         1 <1>         0.1383
     36 H9          2.4552   -0.1251    1.2369 H         1 <1>         0.1486
     37 H10         8.5530    1.5936   -3.8985 H         1 <1>         0.0383
     38 H11         8.9578   -0.0746   -3.4882 H         1 <1>         0.0426
     39 H12         7.5696    0.2735   -4.5409 H         1 <1>         0.0518
     40 H13         8.4312    2.2041   -1.4186 H         1 <1>         0.0444
     41 H14         8.8340    0.5452   -0.9701 H         1 <1>         0.0537
     42 H15         7.3626    1.3094   -0.3320 H         1 <1>         0.0443
     43 H16         7.1960   -6.2963    3.3436 H         1 <1>         0.0904
     44 H17         7.5625   -5.3444    1.8713 H         1 <1>         0.0904
     45 H18         5.9199   -5.9858    2.1376 H         1 <1>         0.1228
     46 H19         6.8090   -0.2710   -2.2072 H         1 <1>         0.0925
@<TRIPOS>BOND
     1    1   11 1
     2    1   23 3
     3    2    6 ar
     4    2   13 ar
     5    3    7 ar
     6    3   13 ar
     7    4    8 ar
     8    4   12 ar
     9    5    9 ar
    10    5   12 ar
    11    6   15 ar
    12    7   15 ar
    13    8   16 ar
    14    9   16 ar
    15   10   14 ar
    16   10   17 ar
    17   11   14 ar
    18   11   18 ar
    19   12   14 1
    20   13   17 1
    21   15   25 1
    22   16   27 1
    23   17   24 ar
    24   18   24 ar
    25   18   26 1
    26   19   22 1
    27   20   22 1
    28   21   25 1
    29   22   26 1
    30    2   28 1
    31    3   29 1
    32    4   30 1
    33    5   31 1
    34    6   32 1
    35    7   33 1
    36    8   34 1
    37    9   35 1
    38   10   36 1
    39   19   37 1
    40   19   38 1
    41   19   39 1
    42   20   40 1
    43   20   41 1
    44   20   42 1
    45   21   43 1
    46   21   44 1
    47   21   45 1
    48   22   46 1
@<TRIPOS>Similarity
1.5209
@<TRIPOS>ShapeSim
0.9021
@<TRIPOS>PharmSim
0.6187
# END
# Name:		AM-807/12740324
# Created and modified by SHAFTS on Thu Jun  3 03:39:13 2010

# 

@<TRIPOS>MOLECULE
AM-807/12740324
   46    49     0
SMALL
USER_CHARGE


@<TRIPOS>ATOM
      1 C1          5.6739   -2.7535    3.1054 C.2       1 <1>        -0.1013
      2 C2          1.4381    2.8320    0.6605 C.ar      1 <1>        -0.0761
      3 C3          0.5433    1.2025   -0.8825 C.ar      1 <1>        -0.0765
      4 C4          0.1745    3.4098    0.7832 C.ar      1 <1>        -0.0667
      5 C5         -0.7205    1.7802   -0.7598 C.ar      1 <1>        -0.0667
      6 C6          5.1912   -1.5025    2.6237 C.2       1 <1>        -0.0819
      7 C7          3.3231    0.1059    0.5553 C.ar      1 <1>        -0.0166
      8 C8          5.8746   -3.6580    2.0860 C.2       1 <1>        -0.0425
      9 C9          3.8330    1.5722   -1.2892 C.ar      1 <1>         0.0161
     10 C10         1.6225    1.7284   -0.1725 C.ar      1 <1>        -0.0592
     11 C11         2.9308    1.1307   -0.2999 C.ar      1 <1>        -0.0352
     12 C12         3.7400    2.5813   -2.3006 C.2       1 <1>        -0.0362
     13 C13        -0.9048    2.8839    0.0731 C.ar      1 <1>        -0.0115
     14 C14         4.5863   -0.4353    0.3944 C.ar      1 <1>         0.0157
     15 C15         5.0415   -1.4984    1.2542 C.2       1 <1>         0.0170
     16 C16         4.8842    2.6742   -3.0621 C.2       1 <1>         0.1068
     17 C17         5.0702    0.9383   -1.3369 C.ar      1 <1>         0.0600
     18 C18         5.1799    3.5466   -4.1549 C.2       1 <1>         0.1083
     19 C19         7.8559    3.4464   -6.7317 C.3       1 <1>        -0.0475
     20 C20         7.5683    5.5012   -5.3031 C.3       1 <1>        -0.0498
     21 C21         6.9009    4.2546   -5.8655 C.3       1 <1>        -0.0418
     22 N1          5.4943   -0.0576   -0.5308 N.ar      1 <1>        -0.3408
     23 N2          2.6576    3.3723   -2.5081 N.pl3     1 <1>        -0.3976
     24 N3          6.4460    3.4319   -4.7678 N.am      1 <1>        -0.3471
     25 O1          4.3529    4.4060   -4.5512 O.2       1 <1>        -0.4836
     26 S1          5.4817   -2.9984    0.5553 S.3       1 <1>        -0.1154
     27 S2          6.0766    1.5525   -2.5689 S.3       1 <1>        -0.0418
     28 Cl1        -2.4634    3.5982    0.2239 Cl        1 <1>        -0.1360
     29 H1          5.8651   -2.9788    4.1464 H         1 <1>         0.1176
     30 H2          2.2696    3.2536    1.2202 H         1 <1>         0.1407
     31 H3          0.6712    0.3431   -1.5365 H         1 <1>         0.1402
     32 H4          0.0452    4.2707    1.4344 H         1 <1>         0.1379
     33 H5         -1.5522    1.3607   -1.3200 H         1 <1>         0.1387
     34 H6          4.9687   -0.6524    3.2568 H         1 <1>         0.1375
     35 H7          2.6526   -0.2588    1.3294 H         1 <1>         0.1483
     36 H8          6.2336   -4.6743    2.1668 H         1 <1>         0.1735
     37 H9          8.7402    3.1450   -6.1607 H         1 <1>         0.0434
     38 H10         7.3753    2.5412   -7.1196 H         1 <1>         0.0525
     39 H11         8.1924    4.0347   -7.5924 H         1 <1>         0.0440
     40 H12         8.4483    5.2353   -4.7073 H         1 <1>         0.0458
     41 H13         6.8782    6.0564   -4.6594 H         1 <1>         0.0390
     42 H14         7.9029    6.1715   -6.1028 H         1 <1>         0.0418
     43 H15         6.0253    4.5447   -6.4564 H         1 <1>         0.1086
     44 H16         1.7932    3.2611   -1.9642 H         1 <1>         0.2769
     45 H17         2.6224    4.0508   -3.2786 H         1 <1>         0.2641
     46 H18         7.1109    2.7704   -4.3803 H         1 <1>         0.2972
@<TRIPOS>BOND
     1    1    6 1
     2    1    8 2
     3    2    4 ar
     4    2   10 ar
     5    3    5 ar
     6    3   10 ar
     7    4   13 ar
     8    5   13 ar
     9    6   15 2
    10    7   11 ar
    11    7   14 ar
    12    8   26 1
    13    9   11 ar
    14    9   12 1
    15    9   17 ar
    16   10   11 1
    17   12   16 2
    18   12   23 1
    19   13   28 1
    20   14   15 1
    21   14   22 ar
    22   15   26 1
    23   16   18 1
    24   16   27 1
    25   17   22 ar
    26   17   27 1
    27   18   24 am
    28   18   25 2
    29   19   21 1
    30   20   21 1
    31   21   24 1
    32    1   29 1
    33    2   30 1
    34    3   31 1
    35    4   32 1
    36    5   33 1
    37    6   34 1
    38    7   35 1
    39    8   36 1
    40   19   37 1
    41   19   38 1
    42   19   39 1
    43   20   40 1
    44   20   41 1
    45   20   42 1
    46   21   43 1
    47   23   44 1
    48   23   45 1
    49   24   46 1
@<TRIPOS>Similarity
1.5201
@<TRIPOS>ShapeSim
0.8770
@<TRIPOS>PharmSim
0.6432
# END
# Name:		AO-476/42008147
# Created and modified by SHAFTS on Thu Jun  3 03:39:13 2010

# 

@<TRIPOS>MOLECULE
AO-476/42008147
   44    47     0
SMALL
USER_CHARGE


@<TRIPOS>ATOM
      1 C1          2.9769    2.8454   -2.1957 C.1       1 <1>         0.0820
      2 C2          6.5843   -3.1358    1.4332 C.ar      1 <1>        -0.0958
      3 C3          5.9668   -3.4435    2.6417 C.ar      1 <1>        -0.1009
      4 C4          6.0898   -2.1019    0.6343 C.ar      1 <1>        -0.0719
      5 C5          1.1488    3.1713    0.1969 C.ar      1 <1>        -0.0737
      6 C6          0.2013    0.9819   -0.1851 C.ar      1 <1>        -0.0740
      7 C7          4.8509   -2.7201    3.0550 C.ar      1 <1>        -0.0946
      8 C8         -0.1297    3.6883    0.4056 C.ar      1 <1>        -0.0662
      9 C9         -1.0773    1.4989    0.0236 C.ar      1 <1>        -0.0660
     10 C10         3.4327    1.7849   -1.3450 C.ar      1 <1>         0.1510
     11 C11         1.3144    1.8180   -0.0986 C.ar      1 <1>        -0.0500
     12 C12         4.9637   -1.3597    1.0280 C.ar      1 <1>        -0.0238
     13 C13         2.6487    1.2787   -0.3169 C.ar      1 <1>         0.0013
     14 C14         4.3390   -1.6908    2.2526 C.ar      1 <1>        -0.0835
     15 C15         3.1396    0.2498    0.4885 C.ar      1 <1>        -0.0281
     16 C16        -1.2428    2.8521    0.3190 C.ar      1 <1>        -0.0115
     17 C17         4.4145   -0.2615    0.2132 C.ar      1 <1>         0.0040
     18 C18         4.6841    1.2281   -1.5376 C.ar      1 <1>         0.1237
     19 C19         6.8125   -0.4316   -3.7669 C.2       1 <1>        -0.1237
     20 C20         7.3753    0.2624   -2.7715 C.2       1 <1>        -0.1003
     21 C21         3.1621   -0.8745    2.7353 C.3       1 <1>        -0.0279
     22 C22         2.3008   -0.3606    1.5778 C.3       1 <1>        -0.0208
     23 C23         6.8998    1.6021   -2.3163 C.3       1 <1>         0.0470
     24 N1          2.6080    3.7036   -2.8842 N.1       1 <1>        -0.3645
     25 N2          5.1898    0.2217   -0.7892 N.ar      1 <1>        -0.3348
     26 O1          5.4982    1.6899   -2.5400 O.3       1 <1>        -0.3530
     27 Cl1        -2.8202    3.4910    0.5752 Cl        1 <1>        -0.1382
     28 H1          7.4552   -3.6992    1.1105 H         1 <1>         0.1187
     29 H2          6.3570   -4.2435    3.2637 H         1 <1>         0.1233
     30 H3          6.5990   -1.8902   -0.3032 H         1 <1>         0.1390
     31 H4          2.0067    3.8358    0.2676 H         1 <1>         0.1409
     32 H5          0.3139   -0.0749   -0.4155 H         1 <1>         0.1375
     33 H6          4.3842   -2.9603    4.0068 H         1 <1>         0.1225
     34 H7         -0.2445    4.7451    0.6332 H         1 <1>         0.1385
     35 H8         -1.9358    0.8359   -0.0482 H         1 <1>         0.1381
     36 H9          7.1905   -1.4029   -4.0658 H         1 <1>         0.0859
     37 H10         5.9573   -0.0315   -4.3004 H         1 <1>         0.0918
     38 H11         8.2367   -0.1622   -2.2625 H         1 <1>         0.1044
     39 H12         2.5325   -1.4689    3.4081 H         1 <1>         0.0781
     40 H13         3.5546   -0.0277    3.3132 H         1 <1>         0.0745
     41 H14         1.5822    0.3536    1.9941 H         1 <1>         0.0756
     42 H15         1.7295   -1.1909    1.1427 H         1 <1>         0.0787
     43 H16         7.3909    2.4195   -2.8536 H         1 <1>         0.1214
     44 H17         7.0904    1.7186   -1.2449 H         1 <1>         0.1251
@<TRIPOS>BOND
     1    1   10 1
     2    1   24 3
     3    2    3 ar
     4    2    4 ar
     5    3    7 ar
     6    4   12 ar
     7    5    8 ar
     8    5   11 ar
     9    6    9 ar
    10    6   11 ar
    11    7   14 ar
    12    8   16 ar
    13    9   16 ar
    14   10   13 ar
    15   10   18 ar
    16   11   13 1
    17   12   14 ar
    18   12   17 1
    19   13   15 ar
    20   14   21 1
    21   15   17 ar
    22   15   22 1
    23   16   27 1
    24   17   25 ar
    25   18   25 ar
    26   18   26 1
    27   19   20 2
    28   20   23 1
    29   21   22 1
    30   23   26 1
    31    2   28 1
    32    3   29 1
    33    4   30 1
    34    5   31 1
    35    6   32 1
    36    7   33 1
    37    8   34 1
    38    9   35 1
    39   19   36 1
    40   19   37 1
    41   20   38 1
    42   21   39 1
    43   21   40 1
    44   22   41 1
    45   22   42 1
    46   23   43 1
    47   23   44 1
@<TRIPOS>Similarity
1.5199
@<TRIPOS>ShapeSim
0.8945
@<TRIPOS>PharmSim
0.6254
# END
# Name:		AP-960/41299812
# Created and modified by SHAFTS on Thu Jun  3 03:39:13 2010

# 

@<TRIPOS>MOLECULE
AP-960/41299812
   40    43     0
SMALL
USER_CHARGE


@<TRIPOS>ATOM
      1 C1          1.1499    3.3757   -0.0189 C.ar      1 <1>        -0.0412
      2 C2          0.2914    1.1319   -0.2744 C.ar      1 <1>        -0.0415
      3 C3          5.2290   -2.3641    0.2989 C.ar      1 <1>        -0.0416
      4 C4          5.2885   -1.0274    2.3106 C.ar      1 <1>        -0.0411
      5 C5         -0.1514    3.8574    0.1234 C.ar      1 <1>        -0.0515
      6 C6         -1.0098    1.6136   -0.1321 C.ar      1 <1>        -0.0516
      7 C7          5.7300   -3.4551    1.0090 C.ar      1 <1>        -0.0529
      8 C8          5.7896   -2.1185    3.0207 C.ar      1 <1>        -0.0525
      9 C9          1.3713    2.0129   -0.2179 C.ar      1 <1>         0.0067
     10 C10         5.0083   -1.1503    0.9496 C.ar      1 <1>         0.0093
     11 C11        -1.2312    2.9763    0.0669 C.ar      1 <1>        -0.0014
     12 C12         6.0103   -3.3324    2.3698 C.ar      1 <1>        -0.0034
     13 C13         4.7486    1.5364   -1.6504 C.2       1 <1>         0.0644
     14 C14         3.5088    1.9905   -1.4169 C.2       1 <1>         0.1057
     15 C15         5.2888    0.4083   -0.8597 C.2       1 <1>         0.1544
     16 C16         3.2300    0.5666    0.5844 C.2       1 <1>         0.0689
     17 C17         5.6282    2.0862   -2.7399 C.3       1 <1>        -0.0179
     18 C18         5.0440    3.3594   -3.3363 C.3       1 <1>        -0.0251
     19 C19         3.5446    3.1889   -3.4906 C.3       1 <1>         0.0420
     20 N1          2.7193    1.5140   -0.3649 N.pl3     1 <1>        -0.2340
     21 N2          4.4887   -0.0200    0.2141 N.am      1 <1>        -0.2170
     22 O1          6.3586   -0.0978   -1.2025 O.2       1 <1>        -0.4465
     23 O2          2.9181    2.9543   -2.2274 O.3       1 <1>        -0.3628
     24 S1          2.4821    0.2782    2.0997 S.2       1 <1>        -0.2464
     25 Cl1        -2.8369    3.5709    0.2428 Cl        1 <1>        -0.1297
     26 Cl2         6.6286   -4.6788    3.2459 Cl        1 <1>        -0.1328
     27 H1          1.9841    4.0711    0.0265 H         1 <1>         0.1507
     28 H2          0.4526    0.0681   -0.4291 H         1 <1>         0.1501
     29 H3          5.0144   -2.4707   -0.7613 H         1 <1>         0.1482
     30 H4          5.1201   -0.0863    2.8276 H         1 <1>         0.1489
     31 H5         -0.3091    4.9216    0.2782 H         1 <1>         0.1469
     32 H6         -1.8419    0.9157   -0.1783 H         1 <1>         0.1468
     33 H7          5.8971   -4.3950    0.4892 H         1 <1>         0.1452
     34 H8          6.0036   -2.0087    4.0806 H         1 <1>         0.1455
     35 H9          6.6192    2.3003   -2.3209 H         1 <1>         0.0743
     36 H10         5.7616    1.3477   -3.5388 H         1 <1>         0.0824
     37 H11         5.2782    4.2212   -2.7033 H         1 <1>         0.0729
     38 H12         5.4948    3.5349   -4.3212 H         1 <1>         0.0607
     39 H13         3.0853    4.0676   -3.9599 H         1 <1>         0.1165
     40 H14         3.3299    2.3259   -4.1293 H         1 <1>         0.1505
@<TRIPOS>BOND
     1    1    5 ar
     2    1    9 ar
     3    2    6 ar
     4    2    9 ar
     5    3    7 ar
     6    3   10 ar
     7    4    8 ar
     8    4   10 ar
     9    5   11 ar
    10    6   11 ar
    11    7   12 ar
    12    8   12 ar
    13    9   20 1
    14   10   21 1
    15   11   25 1
    16   12   26 1
    17   13   14 2
    18   13   15 1
    19   13   17 1
    20   14   20 1
    21   14   23 1
    22   15   21 am
    23   15   22 2
    24   16   20 1
    25   16   21 1
    26   16   24 2
    27   17   18 1
    28   18   19 1
    29   19   23 1
    30    1   27 1
    31    2   28 1
    32    3   29 1
    33    4   30 1
    34    5   31 1
    35    6   32 1
    36    7   33 1
    37    8   34 1
    38   17   35 1
    39   17   36 1
    40   18   37 1
    41   18   38 1
    42   19   39 1
    43   19   40 1
@<TRIPOS>Similarity
1.5198
@<TRIPOS>ShapeSim
0.9464
@<TRIPOS>PharmSim
0.5734
# END
# Name:		AG-690/12404942
# Created and modified by SHAFTS on Thu Jun  3 03:39:13 2010

# 

@<TRIPOS>MOLECULE
AG-690/12404942
   38    41     0
SMALL
USER_CHARGE


@<TRIPOS>ATOM
      1 C1          4.8577   -1.4180    2.1839 C.ar      1 <1>        -0.0702
      2 C2          6.0810   -2.2004    0.2530 C.ar      1 <1>        -0.0765
      3 C3          0.0538    1.1115   -0.3399 C.ar      1 <1>        -0.0846
      4 C4          1.4275    3.0973   -0.2608 C.ar      1 <1>        -0.0807
      5 C5          5.3929   -2.4577    2.9444 C.ar      1 <1>        -0.0911
      6 C6          6.6164   -3.2401    1.0135 C.ar      1 <1>        -0.0948
      7 C7         -1.0650    1.8719   -0.0001 C.ar      1 <1>        -0.0776
      8 C8          0.3086    3.8578    0.0790 C.ar      1 <1>        -0.0756
      9 C9          4.3446    2.8785   -3.0380 C.2       1 <1>         0.0575
     10 C10         5.2017   -1.2894    0.8383 C.ar      1 <1>        -0.0255
     11 C11         1.3001    1.7242   -0.4702 C.ar      1 <1>        -0.0659
     12 C12         6.2722   -3.3687    2.3591 C.ar      1 <1>        -0.1116
     13 C13        -0.9377    3.2450    0.2093 C.ar      1 <1>        -0.0370
     14 C14         4.8191    1.3371   -1.6763 C.2       1 <1>         0.1025
     15 C15         4.6306   -0.1780    0.0245 C.2       1 <1>         0.0145
     16 C16         3.2422    0.3464    0.3924 C.3       1 <1>         0.0527
     17 C17         2.5145    0.8989   -0.8389 C.3       1 <1>         0.0499
     18 C18         6.8451   -4.4796    3.1730 C.3       1 <1>        -0.0392
     19 N1          5.3901    2.1466   -2.5499 N.2       1 <1>        -0.3135
     20 N2          3.1463    2.5825   -2.5342 N.2       1 <1>        -0.3075
     21 N3          5.3499    0.3312   -0.9347 N.2       1 <1>        -0.2973
     22 N4          3.4788    1.6342   -1.6469 N.pl3     1 <1>        -0.2691
     23 Br1        -2.4540    4.2744    0.6702 Br        1 <1>        -0.1050
     24 H1          4.1735   -0.7134    2.6495 H         1 <1>         0.1477
     25 H2          6.3562   -2.1101   -0.7946 H         1 <1>         0.1346
     26 H3         -0.0548    0.0422   -0.5014 H         1 <1>         0.1269
     27 H4          2.3948    3.5831   -0.3592 H         1 <1>         0.1379
     28 H5          5.1196   -2.5501    3.9920 H         1 <1>         0.1231
     29 H6          7.3011   -3.9451    0.5496 H         1 <1>         0.1226
     30 H7         -2.0288    1.3787    0.0984 H         1 <1>         0.1375
     31 H8          0.4248    4.9265    0.2385 H         1 <1>         0.1392
     32 H9          4.4619    3.6501   -3.7843 H         1 <1>         0.2925
     33 H10         2.6896   -0.5175    0.7711 H         1 <1>         0.1144
     34 H11         3.3096    1.0828    1.1925 H         1 <1>         0.1212
     35 H12         2.1607    0.0318   -1.4632 H         1 <1>         0.1743
     36 H13         6.1978   -5.3636    3.1217 H         1 <1>         0.0609
     37 H14         7.8451   -4.7594    2.8171 H         1 <1>         0.0566
     38 H15         6.9528   -4.1875    4.2258 H         1 <1>         0.0563
@<TRIPOS>BOND
     1    1    5 ar
     2    1   10 ar
     3    2    6 ar
     4    2   10 ar
     5    3    7 ar
     6    3   11 ar
     7    4    8 ar
     8    4   11 ar
     9    5   12 ar
    10    6   12 ar
    11    7   13 ar
    12    8   13 ar
    13    9   19 1
    14    9   20 2
    15   10   15 1
    16   11   17 1
    17   12   18 1
    18   13   23 1
    19   14   19 2
    20   14   21 1
    21   14   22 1
    22   15   16 1
    23   15   21 2
    24   16   17 1
    25   17   22 1
    26   20   22 1
    27    1   24 1
    28    2   25 1
    29    3   26 1
    30    4   27 1
    31    5   28 1
    32    6   29 1
    33    7   30 1
    34    8   31 1
    35    9   32 1
    36   16   33 1
    37   16   34 1
    38   17   35 1
    39   18   36 1
    40   18   37 1
    41   18   38 1
@<TRIPOS>Similarity
1.5195
@<TRIPOS>ShapeSim
0.9355
@<TRIPOS>PharmSim
0.5839
# END
# Name:		AG-690/40749461
# Created and modified by SHAFTS on Thu Jun  3 03:39:13 2010

# 

@<TRIPOS>MOLECULE
AG-690/40749461
   40    42     0
SMALL
USER_CHARGE


@<TRIPOS>ATOM
      1 C1          2.9914    2.8975   -2.2042 C.1       1 <1>         0.0752
      2 C2          5.0329   -1.1240    2.3900 C.ar      1 <1>        -0.0630
      3 C3          5.2664   -2.4822    0.4056 C.ar      1 <1>        -0.0767
      4 C4          1.1119    2.9037    0.7678 C.ar      1 <1>        -0.0743
      5 C5          0.2001    1.2954   -0.7875 C.ar      1 <1>        -0.0755
      6 C6          5.5539   -2.1623    3.1620 C.ar      1 <1>        -0.0496
      7 C7          5.7874   -3.5206    1.1777 C.ar      1 <1>        -0.0645
      8 C8         -0.1681    3.4091    0.9956 C.ar      1 <1>        -0.0661
      9 C9         -1.0799    1.8007   -0.5597 C.ar      1 <1>        -0.0662
     10 C10         3.0773    0.2857    0.4467 C.ar      1 <1>        -0.0194
     11 C11         3.4454    1.8264   -1.3630 C.ar      1 <1>         0.1144
     12 C12         1.2961    1.8468   -0.1238 C.ar      1 <1>        -0.0529
     13 C13         4.8891   -1.2840    1.0118 C.ar      1 <1>        -0.0290
     14 C14         2.6239    1.3230   -0.3605 C.ar      1 <1>        -0.0075
     15 C15         5.9311   -3.3605    2.5559 C.ar      1 <1>        -0.0115
     16 C16        -1.2639    2.8576    0.3319 C.ar      1 <1>        -0.0113
     17 C17         4.3500   -0.2095    0.2126 C.ar      1 <1>        -0.0052
     18 C18         4.7017    1.2624   -1.5160 C.ar      1 <1>         0.0546
     19 C19         6.5602   -4.1420    4.7122 C.3       1 <1>         0.0251
     20 C20         7.2276    0.7163   -2.4299 C.3       1 <1>         0.0100
     21 N1          2.6244    3.7634   -2.8841 N.1       1 <1>        -0.3596
     22 N2          5.1769    0.2539   -0.7514 N.ar      1 <1>        -0.3610
     23 O1          6.4400   -4.3732    3.3093 O.3       1 <1>        -0.4155
     24 S1          5.8486    1.8290   -2.7713 S.3       1 <1>        -0.1277
     25 Cl1        -2.8427    3.4827    0.6124 Cl        1 <1>        -0.1376
     26 H1          4.7434   -0.1958    2.8769 H         1 <1>         0.1530
     27 H2          5.1606   -2.6223   -0.6675 H         1 <1>         0.1392
     28 H3          1.9563    3.3444    1.2926 H         1 <1>         0.1416
     29 H4          0.3275    0.4718   -1.4862 H         1 <1>         0.1354
     30 H5          5.6637   -2.0317    4.2351 H         1 <1>         0.1315
     31 H6          6.0798   -4.4517    0.7000 H         1 <1>         0.1155
     32 H7         -0.2970    4.2342    1.6917 H         1 <1>         0.1384
     33 H8         -1.9247    1.3620   -1.0848 H         1 <1>         0.1380
     34 H9          2.4553   -0.1253    1.2372 H         1 <1>         0.1492
     35 H10         6.9790   -5.0289    5.1938 H         1 <1>         0.0905
     36 H11         5.5760   -3.9173    5.1310 H         1 <1>         0.1228
     37 H12         7.2266   -3.2919    4.8765 H         1 <1>         0.0905
     38 H13         8.0494    0.9199   -3.1206 H         1 <1>         0.0801
     39 H14         6.9068   -0.3210   -2.5536 H         1 <1>         0.0801
     40 H15         7.5773    0.8625   -1.4051 H         1 <1>         0.0890
@<TRIPOS>BOND
     1    1   11 1
     2    1   21 3
     3    2    6 ar
     4    2   13 ar
     5    3    7 ar
     6    3   13 ar
     7    4    8 ar
     8    4   12 ar
     9    5    9 ar
    10    5   12 ar
    11    6   15 ar
    12    7   15 ar
    13    8   16 ar
    14    9   16 ar
    15   10   14 ar
    16   10   17 ar
    17   11   14 ar
    18   11   18 ar
    19   12   14 1
    20   13   17 1
    21   15   23 1
    22   16   25 1
    23   17   22 ar
    24   18   22 ar
    25   18   24 1
    26   19   23 1
    27   20   24 1
    28    2   26 1
    29    3   27 1
    30    4   28 1
    31    5   29 1
    32    6   30 1
    33    7   31 1
    34    8   32 1
    35    9   33 1
    36   10   34 1
    37   19   35 1
    38   19   36 1
    39   19   37 1
    40   20   38 1
    41   20   39 1
    42   20   40 1
@<TRIPOS>Similarity
1.5183
@<TRIPOS>ShapeSim
0.9090
@<TRIPOS>PharmSim
0.6092
# END
# Name:		AO-476/15578132
# Created and modified by SHAFTS on Thu Jun  3 03:39:13 2010

# 

@<TRIPOS>MOLECULE
AO-476/15578132
   41    44     0
SMALL
USER_CHARGE


@<TRIPOS>ATOM
      1 C1         -1.0198    2.6823    0.3716 C.ar      1 <1>        -0.1040
      2 C2          0.0782    3.2436    1.0233 C.ar      1 <1>        -0.0988
      3 C3         -0.8352    1.6319   -0.5275 C.ar      1 <1>        -0.1010
      4 C4          1.3609    2.7547    0.7758 C.ar      1 <1>        -0.0866
      5 C5          0.4475    1.1430   -0.7750 C.ar      1 <1>        -0.0901
      6 C6          5.1910   -1.2516    2.4342 C.ar      1 <1>        -0.0698
      7 C7          5.4338   -2.6309    0.4656 C.ar      1 <1>        -0.0668
      8 C8          5.6861   -2.2900    3.2229 C.ar      1 <1>        -0.0613
      9 C9          5.9289   -3.6694    1.2544 C.ar      1 <1>        -0.0523
     10 C10         3.2901    0.1656    0.4490 C.ar      1 <1>        -0.0243
     11 C11         5.4157    2.5396   -3.2671 C.ar      1 <1>         0.0441
     12 C12         3.7483    1.6651   -1.3788 C.ar      1 <1>         0.0622
     13 C13         1.5456    1.7043   -0.1233 C.ar      1 <1>        -0.0673
     14 C14         5.0649   -1.4220    1.0556 C.ar      1 <1>        -0.0237
     15 C15         2.8821    1.1951   -0.3807 C.ar      1 <1>        -0.0341
     16 C16         6.0551   -3.4990    2.6330 C.ar      1 <1>        -0.0117
     17 C17         4.5526   -0.3471    0.2391 C.ar      1 <1>         0.0073
     18 C18         5.0161    1.0904   -1.5266 C.ar      1 <1>         0.0551
     19 C19         3.4097    2.6962   -2.2516 C.ar      1 <1>         0.0059
     20 C20         6.8969   -5.7208    2.7350 C.3       1 <1>         0.0250
     21 N1          5.8470    1.5346   -2.4763 N.ar      1 <1>        -0.3290
     22 N2          4.2277    3.1579   -3.2121 N.ar      1 <1>        -0.3429
     23 N3          5.4033    0.0937   -0.7189 N.ar      1 <1>        -0.3309
     24 N4          2.1567    3.3440   -2.1879 N.pl3     1 <1>        -0.3667
     25 O1          6.5387   -4.5118    3.4027 O.3       1 <1>        -0.4156
     26 H1         -2.0187    3.0621    0.5657 H         1 <1>         0.1222
     27 H2         -0.0655    4.0604    1.7246 H         1 <1>         0.1195
     28 H3         -1.6899    1.1936   -1.0344 H         1 <1>         0.1203
     29 H4          2.2068    3.2028    1.2920 H         1 <1>         0.1309
     30 H5          0.5758    0.3234   -1.4781 H         1 <1>         0.1269
     31 H6          4.9078   -0.3150    2.9087 H         1 <1>         0.1527
     32 H7          5.3414   -2.7793   -0.6076 H         1 <1>         0.1439
     33 H8          5.7824   -2.1512    4.2963 H         1 <1>         0.1154
     34 H9          6.2150   -4.6089    0.7893 H         1 <1>         0.1316
     35 H10         2.6493   -0.2263    1.2339 H         1 <1>         0.1441
     36 H11         6.1056    2.8813   -4.0290 H         1 <1>         0.3073
     37 H12         7.2673   -6.4450    3.4647 H         1 <1>         0.1226
     38 H13         7.6681   -5.5117    1.9894 H         1 <1>         0.0906
     39 H14         6.0131   -6.1276    2.2378 H         1 <1>         0.0906
     40 H15         1.4767    3.0239   -1.5294 H         1 <1>         0.2822
     41 H16         1.9379    4.0466   -2.8638 H         1 <1>         0.2766
@<TRIPOS>BOND
     1    1    2 ar
     2    1    3 ar
     3    2    4 ar
     4    3    5 ar
     5    4   13 ar
     6    5   13 ar
     7    6    8 ar
     8    6   14 ar
     9    7    9 ar
    10    7   14 ar
    11    8   16 ar
    12    9   16 ar
    13   10   15 ar
    14   10   17 ar
    15   11   21 ar
    16   11   22 ar
    17   12   15 ar
    18   12   18 ar
    19   12   19 ar
    20   13   15 1
    21   14   17 1
    22   16   25 1
    23   17   23 ar
    24   18   21 ar
    25   18   23 ar
    26   19   22 ar
    27   19   24 1
    28   20   25 1
    29    1   26 1
    30    2   27 1
    31    3   28 1
    32    4   29 1
    33    5   30 1
    34    6   31 1
    35    7   32 1
    36    8   33 1
    37    9   34 1
    38   10   35 1
    39   11   36 1
    40   20   37 1
    41   20   38 1
    42   20   39 1
    43   24   40 1
    44   24   41 1
@<TRIPOS>Similarity
1.5183
@<TRIPOS>ShapeSim
0.9098
@<TRIPOS>PharmSim
0.6084
# END
# Name:		AO-476/43250025
# Created and modified by SHAFTS on Thu Jun  3 03:39:13 2010

# 

@<TRIPOS>MOLECULE
AO-476/43250025
   41    44     0
SMALL
USER_CHARGE


@<TRIPOS>ATOM
      1 C1          6.0550   -3.4978    2.6346 C.ar      1 <1>        -0.1030
      2 C2          5.6863   -2.2885    3.2239 C.ar      1 <1>        -0.0994
      3 C3          5.9287   -3.6690    1.2559 C.ar      1 <1>        -0.0956
      4 C4          0.0774    3.2438    1.0228 C.ar      1 <1>        -0.0969
      5 C5          5.1913   -1.2504    2.4345 C.ar      1 <1>        -0.0786
      6 C6          5.4336   -2.6310    0.4667 C.ar      1 <1>        -0.0721
      7 C7          1.3605    2.7557    0.7759 C.ar      1 <1>        -0.0846
      8 C8         -1.0202    2.6815    0.3712 C.ar      1 <1>        -0.0702
      9 C9          0.4484    1.1429   -0.7746 C.ar      1 <1>        -0.0440
     10 C10         3.2903    0.1661    0.4494 C.ar      1 <1>        -0.0213
     11 C11         5.4156    2.5391   -3.2675 C.ar      1 <1>         0.0449
     12 C12         3.7484    1.6653   -1.3787 C.ar      1 <1>         0.0646
     13 C13         5.0649   -1.4216    1.0560 C.ar      1 <1>        -0.0261
     14 C14         1.5460    1.7051   -0.1228 C.ar      1 <1>        -0.0570
     15 C15         2.8823    1.1956   -0.3803 C.ar      1 <1>        -0.0280
     16 C16        -0.8348    1.6310   -0.5276 C.ar      1 <1>        -0.0108
     17 C17         4.5526   -0.3468    0.2394 C.ar      1 <1>         0.0112
     18 C18         5.0161    1.0903   -1.5267 C.ar      1 <1>         0.0569
     19 C19         3.4099    2.6963   -2.2516 C.ar      1 <1>         0.0073
     20 C20        -1.6449    0.0116   -2.0693 C.3       1 <1>         0.0238
     21 N1          5.8469    1.5342   -2.4766 N.ar      1 <1>        -0.3281
     22 N2          4.2277    3.1577   -3.2124 N.ar      1 <1>        -0.3419
     23 N3          5.4033    0.0937   -0.7189 N.ar      1 <1>        -0.3282
     24 N4          2.1569    3.3443   -2.1878 N.pl3     1 <1>        -0.3661
     25 O1         -1.9059    1.0825   -1.1634 O.3       1 <1>        -0.4182
     26 H1          6.4420   -4.3053    3.2490 H         1 <1>         0.1220
     27 H2          5.7862   -2.1544    4.2970 H         1 <1>         0.1192
     28 H3          6.2169   -4.6099    0.7963 H         1 <1>         0.1201
     29 H4         -0.0669    4.0619    1.7224 H         1 <1>         0.1286
     30 H5          4.9083   -0.3136    2.9088 H         1 <1>         0.1293
     31 H6          5.3414   -2.7788   -0.6066 H         1 <1>         0.1434
     32 H7          2.2061    3.2045    1.2918 H         1 <1>         0.1268
     33 H8         -2.0175    3.0657    0.5675 H         1 <1>         0.1170
     34 H9          0.5835    0.3236   -1.4781 H         1 <1>         0.1384
     35 H10         2.6496   -0.2255    1.2345 H         1 <1>         0.1465
     36 H11         6.1054    2.8805   -4.0296 H         1 <1>         0.3081
     37 H12        -2.5848   -0.3335   -2.5072 H         1 <1>         0.0898
     38 H13        -1.1568   -0.8076   -1.5355 H         1 <1>         0.0900
     39 H14        -0.9857    0.3704   -2.8634 H         1 <1>         0.1230
     40 H15         1.4771    3.0244   -1.5292 H         1 <1>         0.2824
     41 H16         1.9381    4.0468   -2.8638 H         1 <1>         0.2773
@<TRIPOS>BOND
     1    1    2 ar
     2    1    3 ar
     3    2    5 ar
     4    3    6 ar
     5    4    7 ar
     6    4    8 ar
     7    5   13 ar
     8    6   13 ar
     9    7   14 ar
    10    8   16 ar
    11    9   14 ar
    12    9   16 ar
    13   10   15 ar
    14   10   17 ar
    15   11   21 ar
    16   11   22 ar
    17   12   15 ar
    18   12   18 ar
    19   12   19 ar
    20   13   17 1
    21   14   15 1
    22   16   25 1
    23   17   23 ar
    24   18   21 ar
    25   18   23 ar
    26   19   22 ar
    27   19   24 1
    28   20   25 1
    29    1   26 1
    30    2   27 1
    31    3   28 1
    32    4   29 1
    33    5   30 1
    34    6   31 1
    35    7   32 1
    36    8   33 1
    37    9   34 1
    38   10   35 1
    39   11   36 1
    40   20   37 1
    41   20   38 1
    42   20   39 1
    43   24   40 1
    44   24   41 1
@<TRIPOS>Similarity
1.5174
@<TRIPOS>ShapeSim
0.9103
@<TRIPOS>PharmSim
0.6071
# END
# Name:		AG-205/08567008
# Created and modified by SHAFTS on Thu Jun  3 03:39:13 2010

# 

@<TRIPOS>MOLECULE
AG-205/08567008
   43    45     0
SMALL
USER_CHARGE


@<TRIPOS>ATOM
      1 C1          3.0412    2.8446   -2.1780 C.1       1 <1>         0.0754
      2 C2          5.9458   -3.4139    2.6032 C.ar      1 <1>        -0.1033
      3 C3          5.5702   -2.2133    3.2056 C.ar      1 <1>        -0.0992
      4 C4          5.8063   -3.5763    1.2248 C.ar      1 <1>        -0.0970
      5 C5          5.0549   -1.1750    2.4296 C.ar      1 <1>        -0.0791
      6 C6          5.2910   -2.5381    0.4489 C.ar      1 <1>        -0.0750
      7 C7          0.2241    0.9678   -0.2113 C.ar      1 <1>        -0.0858
      8 C8          1.1693    3.1467    0.2313 C.ar      1 <1>        -0.0750
      9 C9         -1.0551    1.4774    0.0119 C.ar      1 <1>        -0.0647
     10 C10        -0.1099    3.6563    0.4545 C.ar      1 <1>        -0.0519
     11 C11         3.1104    0.2370    0.4776 C.ar      1 <1>        -0.0197
     12 C12         3.4891    1.7734   -1.3335 C.ar      1 <1>         0.1145
     13 C13         1.3363    1.8025   -0.1014 C.ar      1 <1>        -0.0576
     14 C14         4.9153   -1.3374    1.0512 C.ar      1 <1>        -0.0322
     15 C15         2.6628    1.2743   -0.3329 C.ar      1 <1>        -0.0112
     16 C16        -1.2221    2.8215    0.3446 C.ar      1 <1>        -0.0109
     17 C17         4.3823   -0.2625    0.2486 C.ar      1 <1>        -0.0038
     18 C18         4.7442    1.2053   -1.4814 C.ar      1 <1>         0.0546
     19 C19         7.9155   -0.0028   -2.2085 C.3       1 <1>        -0.0501
     20 C20        -2.5691    4.7016    0.8983 C.3       1 <1>         0.0249
     21 C21         7.4479    1.4037   -1.8859 C.3       1 <1>        -0.0008
     22 N1          2.6792    3.7105   -2.8605 N.1       1 <1>        -0.3613
     23 N2          5.2138    0.1965   -0.7135 N.ar      1 <1>        -0.3615
     24 O1         -2.4702    3.3187    0.5617 O.3       1 <1>        -0.4157
     25 S1          5.8970    1.7661   -2.7339 S.3       1 <1>        -0.1285
     26 H1          6.3486   -4.2216    3.2074 H         1 <1>         0.1212
     27 H2          5.6803   -2.0861    4.2785 H         1 <1>         0.1198
     28 H3          6.0999   -4.5104    0.7550 H         1 <1>         0.1188
     29 H4          4.7668   -0.2449    2.9141 H         1 <1>         0.1299
     30 H5          5.1886   -2.6790   -0.6245 H         1 <1>         0.1378
     31 H6          0.3380   -0.0821   -0.4700 H         1 <1>         0.1320
     32 H7          2.0262    3.8102    0.3207 H         1 <1>         0.1439
     33 H8         -1.9176    0.8223   -0.0753 H         1 <1>         0.1164
     34 H9         -0.2340    4.7043    0.7132 H         1 <1>         0.1340
     35 H10         2.4845   -0.1707    1.2667 H         1 <1>         0.1495
     36 H11         7.1770   -0.7520   -1.9034 H         1 <1>         0.0522
     37 H12         8.1144   -0.1253   -3.2786 H         1 <1>         0.0429
     38 H13         8.8458   -0.2184   -1.6723 H         1 <1>         0.0428
     39 H14        -3.6188    4.9676    1.0447 H         1 <1>         0.0903
     40 H15        -2.1379    5.3048    0.0954 H         1 <1>         0.0901
     41 H16        -2.0172    4.8826    1.8238 H         1 <1>         0.1233
     42 H17         8.2000    2.1345   -2.1987 H         1 <1>         0.0849
     43 H18         7.2944    1.5141   -0.8082 H         1 <1>         0.0850
@<TRIPOS>BOND
     1    1   12 1
     2    1   22 3
     3    2    3 ar
     4    2    4 ar
     5    3    5 ar
     6    4    6 ar
     7    5   14 ar
     8    6   14 ar
     9    7    9 ar
    10    7   13 ar
    11    8   10 ar
    12    8   13 ar
    13    9   16 ar
    14   10   16 ar
    15   11   15 ar
    16   11   17 ar
    17   12   15 ar
    18   12   18 ar
    19   13   15 1
    20   14   17 1
    21   16   24 1
    22   17   23 ar
    23   18   23 ar
    24   18   25 1
    25   19   21 1
    26   20   24 1
    27   21   25 1
    28    2   26 1
    29    3   27 1
    30    4   28 1
    31    5   29 1
    32    6   30 1
    33    7   31 1
    34    8   32 1
    35    9   33 1
    36   10   34 1
    37   11   35 1
    38   19   36 1
    39   19   37 1
    40   19   38 1
    41   20   39 1
    42   20   40 1
    43   20   41 1
    44   21   42 1
    45   21   43 1
@<TRIPOS>Similarity
1.5172
@<TRIPOS>ShapeSim
0.9309
@<TRIPOS>PharmSim
0.5863
# END
# Name:		AE-842/32998057
# Created and modified by SHAFTS on Thu Jun  3 03:39:13 2010

# 

@<TRIPOS>MOLECULE
AE-842/32998057
   41    44     0
SMALL
USER_CHARGE


@<TRIPOS>ATOM
      1 C1         -1.3799    2.8600    0.3439 C.ar      1 <1>        -0.1037
      2 C2         -0.2901    3.5944   -0.1235 C.ar      1 <1>        -0.0976
      3 C3         -1.2089    1.5330    0.7387 C.ar      1 <1>        -0.0988
      4 C4          0.9707    3.0021   -0.1961 C.ar      1 <1>        -0.0757
      5 C5          0.0518    0.9408    0.6661 C.ar      1 <1>        -0.0774
      6 C6          5.0847   -2.4427    0.5248 C.ar      1 <1>        -0.0467
      7 C7          4.9985   -1.2219    2.6079 C.ar      1 <1>        -0.0456
      8 C8          5.6757   -3.5220    1.1817 C.ar      1 <1>        -0.0653
      9 C9          5.5895   -2.3012    3.2648 C.ar      1 <1>        -0.0646
     10 C10         1.1417    1.6752    0.1987 C.ar      1 <1>        -0.0349
     11 C11         4.7462   -1.2927    1.2379 C.ar      1 <1>        -0.0234
     12 C12         5.9280   -3.4512    2.5517 C.ar      1 <1>        -0.0174
     13 C13         2.4713    1.0505    0.1220 C.2       1 <1>         0.0077
     14 C14         4.5676    1.9911   -3.0601 C.3       1 <1>        -0.0677
     15 C15         5.6524    0.9350   -2.7759 C.3       1 <1>        -0.0639
     16 C16         3.2255    1.7149   -2.3573 C.3       1 <1>        -0.0491
     17 C17         5.7556    0.5273   -1.2933 C.3       1 <1>        -0.0429
     18 C18         3.5104    1.4382   -0.8967 C.3       1 <1>         0.0102
     19 C19         4.3617    0.1636   -0.8102 C.3       1 <1>        -0.0092
     20 N1          2.8932    0.1692    0.9831 N.2       1 <1>        -0.3273
     21 N2          4.1577   -0.2139    0.5803 N.pl3     1 <1>        -0.3381
     22 Cl1         6.6570   -4.7830    3.3619 Cl        1 <1>        -0.1512
     23 H1         -2.3615    3.3213    0.4003 H         1 <1>         0.1199
     24 H2         -0.4234    4.6275   -0.4311 H         1 <1>         0.1194
     25 H3         -2.0575    0.9613    1.1029 H         1 <1>         0.1197
     26 H4          1.8130    3.5837   -0.5619 H         1 <1>         0.1327
     27 H5          0.1732   -0.0939    0.9763 H         1 <1>         0.1307
     28 H6          4.8933   -2.5076   -0.5432 H         1 <1>         0.1333
     29 H7          4.7401   -0.3297    3.1727 H         1 <1>         0.1345
     30 H8          5.9357   -4.4109    0.6127 H         1 <1>         0.1388
     31 H9          5.7817   -2.2307    4.3325 H         1 <1>         0.1382
     32 H10         4.9417    2.9669   -2.7241 H         1 <1>         0.0437
     33 H11         4.4076    2.0736   -4.1411 H         1 <1>         0.0475
     34 H12         5.4258    0.0394   -3.3687 H         1 <1>         0.0491
     35 H13         6.6240    1.3030   -3.1247 H         1 <1>         0.0441
     36 H14         2.5634    2.5810   -2.4645 H         1 <1>         0.0555
     37 H15         2.7153    0.8664   -2.8286 H         1 <1>         0.0578
     38 H16         6.4357   -0.3257   -1.1913 H         1 <1>         0.0593
     39 H17         6.1820    1.3464   -0.7018 H         1 <1>         0.0606
     40 H18         4.0367    2.2990   -0.4560 H         1 <1>         0.0924
     41 H19         3.9414   -0.6291   -1.4486 H         1 <1>         0.1055
@<TRIPOS>BOND
     1    1    2 ar
     2    1    3 ar
     3    2    4 ar
     4    3    5 ar
     5    4   10 ar
     6    5   10 ar
     7    6    8 ar
     8    6   11 ar
     9    7    9 ar
    10    7   11 ar
    11    8   12 ar
    12    9   12 ar
    13   10   13 1
    14   11   21 1
    15   12   22 1
    16   13   18 1
    17   13   20 2
    18   14   15 1
    19   14   16 1
    20   15   17 1
    21   16   18 1
    22   17   19 1
    23   18   19 1
    24   19   21 1
    25   20   21 1
    26    1   23 1
    27    2   24 1
    28    3   25 1
    29    4   26 1
    30    5   27 1
    31    6   28 1
    32    7   29 1
    33    8   30 1
    34    9   31 1
    35   14   32 1
    36   14   33 1
    37   15   34 1
    38   15   35 1
    39   16   36 1
    40   16   37 1
    41   17   38 1
    42   17   39 1
    43   18   40 1
    44   19   41 1
@<TRIPOS>Similarity
1.5168
@<TRIPOS>ShapeSim
0.9232
@<TRIPOS>PharmSim
0.5936
# END
# Name:		AG-690/12404942
# Created and modified by SHAFTS on Thu Jun  3 03:39:13 2010

# 

@<TRIPOS>MOLECULE
AG-690/12404942
   38    41     0
SMALL
USER_CHARGE


@<TRIPOS>ATOM
      1 C1          4.6146   -1.3449    2.1983 C.ar      1 <1>        -0.0702
      2 C2          5.8505   -2.1637    0.2905 C.ar      1 <1>        -0.0769
      3 C3          0.9222    3.4842    0.2050 C.ar      1 <1>        -0.0785
      4 C4          0.2732    1.2119   -0.2969 C.ar      1 <1>        -0.0775
      5 C5          5.1898   -2.3344    2.9956 C.ar      1 <1>        -0.0912
      6 C6          6.4259   -3.1531    1.0879 C.ar      1 <1>        -0.0953
      7 C7         -0.4200    3.8631    0.2257 C.ar      1 <1>        -0.0751
      8 C8         -1.0691    1.5906   -0.2761 C.ar      1 <1>        -0.0752
      9 C9          3.9021    2.6827   -3.2163 C.2       1 <1>         0.0578
     10 C10         4.9450   -1.2597    0.8457 C.ar      1 <1>        -0.0258
     11 C11         1.2689    2.1586   -0.0563 C.ar      1 <1>        -0.0592
     12 C12         6.0955   -3.2384    2.4405 C.ar      1 <1>        -0.1120
     13 C13        -1.4157    2.9163   -0.0148 C.ar      1 <1>        -0.0369
     14 C14         4.4275    1.1968   -1.8123 C.2       1 <1>         0.1025
     15 C15         4.3310   -0.2020   -0.0075 C.2       1 <1>         0.0146
     16 C16         2.9282    0.2897    0.3508 C.3       1 <1>         0.0522
     17 C17         2.7256    1.7475   -0.0788 C.3       1 <1>         0.0501
     18 C18         6.7112   -4.2955    3.2937 C.3       1 <1>        -0.0394
     19 N1          4.7773    1.6560   -3.0002 N.2       1 <1>        -0.3139
     20 N2          3.0222    2.9078   -2.2404 N.2       1 <1>        -0.3057
     21 N3          4.9901    0.2279   -1.0455 N.2       1 <1>        -0.2965
     22 N4          3.3484    1.9297   -1.3834 N.pl3     1 <1>        -0.2683
     23 Br1        -3.2340    3.4305    0.0128 Br        1 <1>        -0.1060
     24 H1          3.9101   -0.6453    2.6406 H         1 <1>         0.1479
     25 H2          6.1153   -2.1067   -0.7620 H         1 <1>         0.1345
     26 H3          1.6912    4.2287    0.3937 H         1 <1>         0.1289
     27 H4          0.5339    0.1769   -0.5022 H         1 <1>         0.1365
     28 H5          4.9270   -2.3933    4.0484 H         1 <1>         0.1230
     29 H6          7.1309   -3.8530    0.6472 H         1 <1>         0.1224
     30 H7         -0.6730    4.9004    0.4299 H         1 <1>         0.1373
     31 H8         -1.8327    0.8407   -0.4653 H         1 <1>         0.1387
     32 H9          3.9090    3.2847   -4.1128 H         1 <1>         0.2911
     33 H10         2.1701   -0.3704   -0.0692 H         1 <1>         0.1111
     34 H11         2.8637    0.2313    1.4406 H         1 <1>         0.1212
     35 H12         3.2784    2.4122    0.6415 H         1 <1>         0.1602
     36 H13         6.0938   -5.2020    3.2835 H         1 <1>         0.0607
     37 H14         7.7176   -4.5559    2.9414 H         1 <1>         0.0565
     38 H15         6.8160   -3.9575    4.3329 H         1 <1>         0.0562
@<TRIPOS>BOND
     1    1    5 ar
     2    1   10 ar
     3    2    6 ar
     4    2   10 ar
     5    3    7 ar
     6    3   11 ar
     7    4    8 ar
     8    4   11 ar
     9    5   12 ar
    10    6   12 ar
    11    7   13 ar
    12    8   13 ar
    13    9   19 1
    14    9   20 2
    15   10   15 1
    16   11   17 1
    17   12   18 1
    18   13   23 1
    19   14   19 2
    20   14   21 1
    21   14   22 1
    22   15   16 1
    23   15   21 2
    24   16   17 1
    25   17   22 1
    26   20   22 1
    27    1   24 1
    28    2   25 1
    29    3   26 1
    30    4   27 1
    31    5   28 1
    32    6   29 1
    33    7   30 1
    34    8   31 1
    35    9   32 1
    36   16   33 1
    37   16   34 1
    38   17   35 1
    39   18   36 1
    40   18   37 1
    41   18   38 1
@<TRIPOS>Similarity
1.5154
@<TRIPOS>ShapeSim
0.9352
@<TRIPOS>PharmSim
0.5801
# END
# Name:		AE-842/32998057
# Created and modified by SHAFTS on Thu Jun  3 03:39:13 2010

# 

@<TRIPOS>MOLECULE
AE-842/32998057
   41    44     0
SMALL
USER_CHARGE


@<TRIPOS>ATOM
      1 C1         -1.3538    2.9053    0.3893 C.ar      1 <1>        -0.1037
      2 C2         -0.1749    3.6299    0.5638 C.ar      1 <1>        -0.0988
      3 C3         -1.2981    1.5424    0.0973 C.ar      1 <1>        -0.0976
      4 C4          1.0599    2.9918    0.4462 C.ar      1 <1>        -0.0774
      5 C5         -0.0633    0.9043   -0.0203 C.ar      1 <1>        -0.0757
      6 C6          5.6634   -2.2043    0.5393 C.ar      1 <1>        -0.0456
      7 C7          4.3470   -1.5884    2.4692 C.ar      1 <1>        -0.0467
      8 C8          6.3102   -3.1837    1.2930 C.ar      1 <1>        -0.0646
      9 C9          4.9938   -2.5678    3.2229 C.ar      1 <1>        -0.0653
     10 C10         1.1157    1.6290    0.1541 C.ar      1 <1>        -0.0349
     11 C11         4.6819   -1.4066    1.1274 C.ar      1 <1>        -0.0234
     12 C12         5.9754   -3.3655    2.6348 C.ar      1 <1>        -0.0174
     13 C13         2.4182    0.9560    0.0300 C.2       1 <1>         0.0078
     14 C14         4.9880    2.7327   -2.3455 C.3       1 <1>        -0.0678
     15 C15         6.1567    1.8242   -1.9194 C.3       1 <1>        -0.0638
     16 C16         3.8271    2.7753   -1.3346 C.3       1 <1>        -0.0490
     17 C17         5.7158    0.4567   -1.3624 C.3       1 <1>        -0.0428
     18 C18         3.4604    1.3494   -0.9832 C.3       1 <1>         0.0102
     19 C19         4.6684    0.7040   -0.2899 C.3       1 <1>        -0.0092
     20 N1          2.7453   -0.0928    0.7295 N.2       1 <1>        -0.3272
     21 N2          4.0374   -0.4268    0.3742 N.pl3     1 <1>        -0.3379
     22 Cl1         6.7736   -4.5739    3.5643 Cl        1 <1>        -0.1512
     23 H1         -2.3152    3.4021    0.4808 H         1 <1>         0.1199
     24 H2         -0.2185    4.6911    0.7909 H         1 <1>         0.1198
     25 H3         -2.2161    0.9781   -0.0383 H         1 <1>         0.1195
     26 H4          1.9724    3.5661    0.5841 H         1 <1>         0.1306
     27 H5         -0.0319   -0.1581   -0.2482 H         1 <1>         0.1327
     28 H6          5.9325   -2.0701   -0.5052 H         1 <1>         0.1345
     29 H7          3.5846   -0.9712    2.9378 H         1 <1>         0.1332
     30 H8          7.0743   -3.7966    0.8217 H         1 <1>         0.1383
     31 H9          4.7235   -2.6966    4.2680 H         1 <1>         0.1389
     32 H10         5.3577    3.7486   -2.5251 H         1 <1>         0.0477
     33 H11         4.6005    2.3663   -3.3049 H         1 <1>         0.0428
     34 H12         6.8345    1.6748   -2.7675 H         1 <1>         0.0496
     35 H13         6.7348    2.3457   -1.1455 H         1 <1>         0.0443
     36 H14         4.1190    3.3403   -0.4414 H         1 <1>         0.0541
     37 H15         2.9701    3.2981   -1.7731 H         1 <1>         0.0594
     38 H16         5.3206   -0.1734   -2.1683 H         1 <1>         0.0593
     39 H17         6.5818   -0.0684   -0.9443 H         1 <1>         0.0606
     40 H18         3.1892    0.8037   -1.9001 H         1 <1>         0.0917
     41 H19         5.0775    1.3735    0.4827 H         1 <1>         0.1053
@<TRIPOS>BOND
     1    1    2 ar
     2    1    3 ar
     3    2    4 ar
     4    3    5 ar
     5    4   10 ar
     6    5   10 ar
     7    6    8 ar
     8    6   11 ar
     9    7    9 ar
    10    7   11 ar
    11    8   12 ar
    12    9   12 ar
    13   10   13 1
    14   11   21 1
    15   12   22 1
    16   13   18 1
    17   13   20 2
    18   14   15 1
    19   14   16 1
    20   15   17 1
    21   16   18 1
    22   17   19 1
    23   18   19 1
    24   19   21 1
    25   20   21 1
    26    1   23 1
    27    2   24 1
    28    3   25 1
    29    4   26 1
    30    5   27 1
    31    6   28 1
    32    7   29 1
    33    8   30 1
    34    9   31 1
    35   14   32 1
    36   14   33 1
    37   15   34 1
    38   15   35 1
    39   16   36 1
    40   16   37 1
    41   17   38 1
    42   17   39 1
    43   18   40 1
    44   19   41 1
@<TRIPOS>Similarity
1.5150
@<TRIPOS>ShapeSim
0.9216
@<TRIPOS>PharmSim
0.5934
# END
