@<TRIPOS>MOLECULE
AE-848/41009149
 40 42 0 0 0
SMALL
USER_CHARGES

@<TRIPOS>ATOM
      1 C           3.0523    2.8409   -2.1862 C.1     1  LIG1        0.0890
      2 C          -1.2223    2.8235    0.3433 C.ar    1  LIG1       -0.1023
      3 C           5.9470   -3.4147    2.6026 C.ar    1  LIG1       -0.1036
      4 C          -0.1267    3.3727    1.0093 C.ar    1  LIG1       -0.0990
      5 C          -1.0391    1.7638   -0.5450 C.ar    1  LIG1       -0.0992
      6 C           5.0286   -2.5215    3.1545 C.ar    1  LIG1       -0.0997
      7 C           6.3500   -3.2692    1.2752 C.ar    1  LIG1       -0.0972
      8 C           1.1523    2.8623    0.7867 C.ar    1  LIG1       -0.0881
      9 C           0.2398    1.2533   -0.7674 C.ar    1  LIG1       -0.0873
     10 C           4.5132   -1.4830    2.3790 C.ar    1  LIG1       -0.0801
     11 C           5.8346   -2.2307    0.4996 C.ar    1  LIG1       -0.0753
     12 C           3.1106    0.2363    0.4786 C.ar    1  LIG1       -0.0202
     13 C           3.4880    1.7728   -1.3328 C.ar    1  LIG1        0.1409
     14 C           1.3356    1.8026   -0.1016 C.ar    1  LIG1       -0.0609
     15 C           4.9162   -1.3375    1.0515 C.ar    1  LIG1       -0.0336
     16 C           2.6622    1.2734   -0.3319 C.ar    1  LIG1       -0.0015
     17 C           4.3827   -0.2625    0.2493 C.ar    1  LIG1       -0.0020
     18 C           4.7434    1.2054   -1.4809 C.ar    1  LIG1        0.0604
     19 C           6.5111    2.7868   -2.2120 C.3     1  LIG1       -0.0219
     20 C           5.5785    1.1121   -3.8164 C.3     1  LIG1       -0.0218
     21 N           2.6999    3.7047   -2.8764 N.1     1  LIG1       -0.3630
     22 N           5.2137    0.1970   -0.7131 N.ar    1  LIG1       -0.3458
     23 N           5.6008    1.7006   -2.4962 N.pl3   1  LIG1       -0.3733
     24 H          -2.2182    3.2199    0.5180 H       1  LIG1        0.1219
     25 H           6.3494   -4.2221    3.2072 H       1  LIG1        0.1209
     26 H          -0.2694    4.1968    1.7022 H       1  LIG1        0.1212
     27 H          -1.8920    1.3347   -1.0627 H       1  LIG1        0.1215
     28 H           4.7160   -2.6336    4.1886 H       1  LIG1        0.1196
     29 H           7.0660   -3.9634    0.8452 H       1  LIG1        0.1186
     30 H           1.9963    3.3012    1.3137 H       1  LIG1        0.1231
     31 H           0.3672    0.4266   -1.4622 H       1  LIG1        0.1284
     32 H           3.7982   -0.7948    2.8238 H       1  LIG1        0.1287
     33 H           6.1585   -2.1294   -0.5335 H       1  LIG1        0.1378
     34 H           2.4849   -0.1711    1.2682 H       1  LIG1        0.1499
     35 H           7.0899    3.0354   -3.1054 H       1  LIG1        0.0845
     36 H           7.2016    2.5022   -1.4134 H       1  LIG1        0.0932
     37 H           5.9548    3.6730   -1.8951 H       1  LIG1        0.0692
     38 H           6.2996    1.6164   -4.4648 H       1  LIG1        0.0845
     39 H           4.5820    1.2084   -4.2563 H       1  LIG1        0.0694
     40 H           5.8362    0.0510   -3.7617 H       1  LIG1        0.0932
@<TRIPOS>BOND
     1     1    13    1
     2     1    21    3
     3     2     4   ar
     4     2     5   ar
     5     3     6   ar
     6     3     7   ar
     7     4     8   ar
     8     5     9   ar
     9     6    10   ar
    10     7    11   ar
    11     8    14   ar
    12     9    14   ar
    13    10    15   ar
    14    11    15   ar
    15    12    16   ar
    16    12    17   ar
    17    13    16   ar
    18    13    18   ar
    19    14    16    1
    20    15    17    1
    21    17    22   ar
    22    18    22   ar
    23    18    23    1
    24    19    23    1
    25    20    23    1
    26     2    24    1
    27     3    25    1
    28     4    26    1
    29     5    27    1
    30     6    28    1
    31     7    29    1
    32     8    30    1
    33     9    31    1
    34    10    32    1
    35    11    33    1
    36    12    34    1
    37    19    35    1
    38    19    36    1
    39    19    37    1
    40    20    38    1
    41    20    39    1
    42    20    40    1
