@<TRIPOS>MOLECULE
AN-329/05740035
 44 47 0 0 0
SMALL
USER_CHARGES

@<TRIPOS>ATOM
      1 C           5.9419   -3.5737    2.7705 C.ar    1  LIG1       -0.1031
      2 C           5.0334   -2.6484    3.2844 C.ar    1  LIG1       -0.0992
      3 C           6.3833   -3.4597    1.4522 C.ar    1  LIG1       -0.0962
      4 C           4.5663   -1.6091    2.4798 C.ar    1  LIG1       -0.0787
      5 C           5.9162   -2.4204    0.6478 C.ar    1  LIG1       -0.0734
      6 C           0.3818    0.9184   -0.2512 C.ar    1  LIG1       -0.0776
      7 C           1.3867    3.0732    0.1781 C.ar    1  LIG1       -0.0866
      8 C          -0.8857    1.4763   -0.0847 C.ar    1  LIG1       -0.0530
      9 C           0.1191    3.6311    0.3446 C.ar    1  LIG1       -0.0654
     10 C           3.2578    0.1032    0.5319 C.ar    1  LIG1       -0.0242
     11 C           3.7009    1.6124   -1.2951 C.ar    1  LIG1        0.0137
     12 C           1.5180    1.7168   -0.1198 C.ar    1  LIG1       -0.0649
     13 C           5.0076   -1.4950    1.1615 C.ar    1  LIG1       -0.0292
     14 C           2.8304    1.1393   -0.2922 C.ar    1  LIG1       -0.0426
     15 C           3.5688    2.6399   -2.2834 C.ar    1  LIG1       -0.0379
     16 C          -1.0171    2.8327    0.2132 C.ar    1  LIG1       -0.0118
     17 C           4.5234   -0.4176    0.3281 C.ar    1  LIG1        0.0032
     18 C           4.6917    2.7633   -3.0718 C.ar    1  LIG1        0.0999
     19 C           4.9447    0.9963   -1.3871 C.ar    1  LIG1        0.0546
     20 C           4.9481    3.6609   -4.1538 C.2     1  LIG1        0.0901
     21 C          -3.3723    2.5035    0.2262 C.3     1  LIG1        0.0252
     22 N           5.4022   -0.0095   -0.6122 N.ar    1  LIG1       -0.3504
     23 N           2.4714    3.4203   -2.4475 N.pl3   1  LIG1       -0.3971
     24 N           6.1879    3.5890   -4.8084 N.am    1  LIG1       -0.3425
     25 O           4.1115    4.5209   -4.5282 O.2     1  LIG1       -0.4917
     26 O          -2.2539    3.3769    0.3750 O.3     1  LIG1       -0.4156
     27 S           5.9109    1.6483   -2.6318 S.2     1  LIG1       -0.0476
     28 H           6.3068   -4.3819    3.3977 H       1  LIG1        0.1216
     29 H           4.6908   -2.7360    4.3112 H       1  LIG1        0.1197
     30 H           7.0918   -4.1791    1.0520 H       1  LIG1        0.1199
     31 H           3.8583   -0.8955    2.8951 H       1  LIG1        0.1291
     32 H           6.2697   -2.3439   -0.3778 H       1  LIG1        0.1406
     33 H           0.4679   -0.1405   -0.4832 H       1  LIG1        0.1420
     34 H           2.2626    3.7087    0.2837 H       1  LIG1        0.1369
     35 H          -1.7671    0.8494   -0.1885 H       1  LIG1        0.1334
     36 H           0.0229    4.6883    0.5763 H       1  LIG1        0.1162
     37 H           2.6124   -0.2859    1.3153 H       1  LIG1        0.1460
     38 H          -4.2970    3.0649    0.3805 H       1  LIG1        0.0904
     39 H          -3.3008    1.6913    0.9539 H       1  LIG1        0.0907
     40 H          -3.3661    2.0869   -0.7838 H       1  LIG1        0.1235
     41 H           1.6227    3.2869   -1.8842 H       1  LIG1        0.2657
     42 H           2.4079    4.1133   -3.2031 H       1  LIG1        0.2758
     43 H           6.8665    2.9031   -4.4959 H       1  LIG1        0.2783
     44 H           6.4295    4.1986   -5.5829 H       1  LIG1        0.2726
@<TRIPOS>BOND
     1     1     2   ar
     2     1     3   ar
     3     2     4   ar
     4     3     5   ar
     5     4    13   ar
     6     5    13   ar
     7     6     8   ar
     8     6    12   ar
     9     7     9   ar
    10     7    12   ar
    11     8    16   ar
    12     9    16   ar
    13    10    14   ar
    14    10    17   ar
    15    11    14   ar
    16    11    15   ar
    17    11    19   ar
    18    12    14    1
    19    13    17    1
    20    15    18   ar
    21    15    23    1
    22    16    26    1
    23    17    22   ar
    24    18    20    1
    25    18    27   ar
    26    19    22   ar
    27    19    27   ar
    28    20    24   am
    29    20    25    2
    30    21    26    1
    31     1    28    1
    32     2    29    1
    33     3    30    1
    34     4    31    1
    35     5    32    1
    36     6    33    1
    37     7    34    1
    38     8    35    1
    39     9    36    1
    40    10    37    1
    41    21    38    1
    42    21    39    1
    43    21    40    1
    44    23    41    1
    45    23    42    1
    46    24    43    1
    47    24    44    1
