@<TRIPOS>MOLECULE
AG-690/11481224
 42 44 0 0 0
SMALL
USER_CHARGES

@<TRIPOS>ATOM
      1 C           3.0646    2.8384   -2.1915 C.1     1  LIG1        0.0803
      2 C           5.9483   -3.4152    2.6018 C.ar    1  LIG1       -0.1027
      3 C           5.5726   -2.2150    3.2053 C.ar    1  LIG1       -0.0986
      4 C           5.8083   -3.5766    1.2234 C.ar    1  LIG1       -0.0963
      5 C           5.0568   -1.1762    2.4303 C.ar    1  LIG1       -0.0782
      6 C           5.2925   -2.5378    0.4485 C.ar    1  LIG1       -0.0739
      7 C           0.2224    0.9689   -0.2099 C.ar    1  LIG1       -0.0740
      8 C           1.1691    3.1479    0.2291 C.ar    1  LIG1       -0.0727
      9 C          -1.0565    1.4800    0.0112 C.ar    1  LIG1       -0.0738
     10 C          -0.1098    3.6590    0.4501 C.ar    1  LIG1       -0.0736
     11 C           3.1110    0.2364    0.4804 C.ar    1  LIG1       -0.0199
     12 C           3.4862    1.7716   -1.3326 C.ar    1  LIG1        0.1494
     13 C           1.3353    1.8029   -0.1009 C.ar    1  LIG1       -0.0498
     14 C           4.9167   -1.3376    1.0519 C.ar    1  LIG1       -0.0298
     15 C           2.6616    1.2727   -0.3304 C.ar    1  LIG1       -0.0013
     16 C          -1.2226    2.8249    0.3412 C.ar    1  LIG1       -0.0364
     17 C           4.3831   -0.2623    0.2501 C.ar    1  LIG1       -0.0021
     18 C           4.7416    1.2044   -1.4816 C.ar    1  LIG1        0.1212
     19 C           7.4509    1.3928   -4.6510 C.3     1  LIG1       -0.0632
     20 C           7.7582    2.1337   -3.3620 C.3     1  LIG1       -0.0386
     21 C           6.9855    1.5625   -2.1831 C.3     1  LIG1        0.0321
     22 N           2.7232    3.7024   -2.8870 N.1     1  LIG1       -0.3655
     23 N           5.2129    0.1967   -0.7135 N.ar    1  LIG1       -0.3378
     24 O           5.5931    1.6604   -2.4550 O.3     1  LIG1       -0.3607
     25 BR         -2.9551    3.5183    0.6400 Br      1  LIG1       -0.1053
     26 H           6.3515   -4.2232    3.2052 H       1  LIG1        0.1221
     27 H           5.6831   -2.0886    4.2783 H       1  LIG1        0.1203
     28 H           6.1020   -4.5103    0.7527 H       1  LIG1        0.1192
     29 H           4.7686   -0.2467    2.9155 H       1  LIG1        0.1308
     30 H           5.1897   -2.6779   -0.6250 H       1  LIG1        0.1393
     31 H           0.3358   -0.0818   -0.4665 H       1  LIG1        0.1353
     32 H           2.0265    3.8109    0.3170 H       1  LIG1        0.1417
     33 H          -1.9132    0.8168   -0.0784 H       1  LIG1        0.1396
     34 H          -0.2220    4.7091    0.7065 H       1  LIG1        0.1402
     35 H           2.4858   -0.1710    1.2704 H       1  LIG1        0.1462
     36 H           7.6832    0.3273   -4.5556 H       1  LIG1        0.0350
     37 H           6.3892    1.4878   -4.8996 H       1  LIG1        0.0350
     38 H           8.0326    1.7984   -5.4848 H       1  LIG1        0.0398
     39 H           7.5190    3.1976   -3.4781 H       1  LIG1        0.0553
     40 H           8.8339    2.0881   -3.1538 H       1  LIG1        0.0553
     41 H           7.2363    0.5088   -2.0248 H       1  LIG1        0.1083
     42 H           7.2016    2.1212   -1.2667 H       1  LIG1        0.1083
@<TRIPOS>BOND
     1     1    12    1
     2     1    22    3
     3     2     3   ar
     4     2     4   ar
     5     3     5   ar
     6     4     6   ar
     7     5    14   ar
     8     6    14   ar
     9     7     9   ar
    10     7    13   ar
    11     8    10   ar
    12     8    13   ar
    13     9    16   ar
    14    10    16   ar
    15    11    15   ar
    16    11    17   ar
    17    12    15   ar
    18    12    18   ar
    19    13    15    1
    20    14    17    1
    21    16    25    1
    22    17    23   ar
    23    18    23   ar
    24    18    24    1
    25    19    20    1
    26    20    21    1
    27    21    24    1
    28     2    26    1
    29     3    27    1
    30     4    28    1
    31     5    29    1
    32     6    30    1
    33     7    31    1
    34     8    32    1
    35     9    33    1
    36    10    34    1
    37    11    35    1
    38    19    36    1
    39    19    37    1
    40    19    38    1
    41    20    39    1
    42    20    40    1
    43    21    41    1
    44    21    42    1
