@<TRIPOS>MOLECULE
AG-205/32388062
 41 44 0 0 0
SMALL
USER_CHARGES

@<TRIPOS>ATOM
      1 C           5.9790   -3.4217    2.5913 C.ar    1  LIG1       -0.1051
      2 C           7.3680    2.6035   -4.4620 C.ar    1  LIG1       -0.1051
      3 C           5.5979   -2.2265    3.2010 C.ar    1  LIG1       -0.0983
      4 C           5.8336   -3.5789    1.2129 C.ar    1  LIG1       -0.1015
      5 C           5.9894    2.6698   -4.6629 C.ar    1  LIG1       -0.1015
      6 C           7.8752    2.0774   -3.2738 C.ar    1  LIG1       -0.0983
      7 C           5.0713   -1.1884    2.4324 C.ar    1  LIG1       -0.0764
      8 C           5.3071   -2.5408    0.4443 C.ar    1  LIG1       -0.0822
      9 C           5.1177    2.2098   -3.6757 C.ar    1  LIG1       -0.0822
     10 C           7.0036    1.6174   -2.2866 C.ar    1  LIG1       -0.0764
     11 C           0.3034    0.9940    0.4001 C.ar    1  LIG1       -0.0767
     12 C           1.0707    3.1431   -0.3937 C.ar    1  LIG1       -0.0767
     13 C          -0.9712    1.5234    0.6016 C.ar    1  LIG1       -0.0779
     14 C          -0.2041    3.6725   -0.1922 C.ar    1  LIG1       -0.0779
     15 C           3.1067    0.2182    0.4973 C.ar    1  LIG1       -0.0397
     16 C           3.4639    1.7657   -1.3087 C.ar    1  LIG1       -0.0397
     17 C           1.3244    1.8038   -0.0975 C.ar    1  LIG1       -0.0652
     18 C           4.9259   -1.3455    1.0541 C.ar    1  LIG1       -0.0381
     19 C           5.6249    1.6837   -2.4875 C.ar    1  LIG1       -0.0381
     20 C           2.6468    1.2558   -0.3059 C.ar    1  LIG1       -0.0574
     21 C          -1.2249    2.8627    0.3053 C.ar    1  LIG1       -0.0426
     22 C           4.3810   -0.2707    0.2589 C.ar    1  LIG1       -0.0118
     23 C           4.7224    1.2077   -1.4662 C.ar    1  LIG1       -0.0118
     24 N           5.2036    0.1990   -0.7056 N.ar    1  LIG1       -0.3713
     25 I          -3.1239    3.6506    0.6045 I       1  LIG1       -0.0999
     26 H           6.3905   -4.2293    3.1897 H       1  LIG1        0.1189
     27 H           8.0465    2.9601   -5.2314 H       1  LIG1        0.1188
     28 H           5.7125   -2.1035    4.2740 H       1  LIG1        0.1182
     29 H           6.1315   -4.5087    0.7372 H       1  LIG1        0.1182
     30 H           5.5943    3.0778   -5.5886 H       1  LIG1        0.1182
     31 H           8.9486    2.0241   -3.1172 H       1  LIG1        0.1182
     32 H           4.7791   -0.2627    2.9226 H       1  LIG1        0.1372
     33 H           5.2002   -2.6775   -0.6292 H       1  LIG1        0.1246
     34 H           4.0455    2.2681   -3.8476 H       1  LIG1        0.1246
     35 H           7.4135    1.2093   -1.3658 H       1  LIG1        0.1372
     36 H           0.4863   -0.0517    0.6362 H       1  LIG1        0.1348
     37 H           1.8565    3.7870   -0.7812 H       1  LIG1        0.1348
     38 H          -1.7515    0.8747    0.9906 H       1  LIG1        0.1359
     39 H          -0.3802    4.7187   -0.4294 H       1  LIG1        0.1359
     40 H           2.4866   -0.1958    1.2879 H       1  LIG1        0.1382
     41 H           3.1253    2.5755   -1.9491 H       1  LIG1        0.1382
@<TRIPOS>BOND
     1     1     3   ar
     2     1     4   ar
     3     2     5   ar
     4     2     6   ar
     5     3     7   ar
     6     4     8   ar
     7     5     9   ar
     8     6    10   ar
     9     7    18   ar
    10     8    18   ar
    11     9    19   ar
    12    10    19   ar
    13    11    13   ar
    14    11    17   ar
    15    12    14   ar
    16    12    17   ar
    17    13    21   ar
    18    14    21   ar
    19    15    20   ar
    20    15    22   ar
    21    16    20   ar
    22    16    23   ar
    23    17    20    1
    24    18    22    1
    25    19    23    1
    26    21    25    1
    27    22    24   ar
    28    23    24   ar
    29     1    26    1
    30     2    27    1
    31     3    28    1
    32     4    29    1
    33     5    30    1
    34     6    31    1
    35     7    32    1
    36     8    33    1
    37     9    34    1
    38    10    35    1
    39    11    36    1
    40    12    37    1
    41    13    38    1
    42    14    39    1
    43    15    40    1
    44    16    41    1
