@<TRIPOS>MOLECULE
AO-476/43249983
 44 48 0 0 0
SMALL
USER_CHARGES

@<TRIPOS>ATOM
      1 C           0.3952   -0.7429    3.2658 C.ar    1  LIG1       -0.0985
      2 C          -1.5198    2.5682    0.7696 C.ar    1  LIG1       -0.1014
      3 C           5.9605   -3.4338    2.6154 C.ar    1  LIG1       -0.0946
      4 C           0.9066    0.5540    3.2213 C.ar    1  LIG1       -0.0922
      5 C           0.8343   -1.6976    2.3484 C.ar    1  LIG1       -0.0960
      6 C          -1.1491    1.3748    0.1498 C.ar    1  LIG1       -0.0962
      7 C          -0.6393    3.6500    0.7828 C.ar    1  LIG1       -0.0948
      8 C           5.6150   -2.2140    3.1972 C.ar    1  LIG1       -0.0869
      9 C           5.8199   -3.6148    1.2396 C.ar    1  LIG1       -0.0859
     10 C           1.8571    0.8963    2.2595 C.ar    1  LIG1       -0.0743
     11 C           1.7847   -1.3553    1.3866 C.ar    1  LIG1       -0.0791
     12 C           0.1020    1.2632   -0.4568 C.ar    1  LIG1       -0.0719
     13 C           0.6119    3.5384    0.1763 C.ar    1  LIG1       -0.0713
     14 C           5.1288   -1.1754    2.4032 C.ar    1  LIG1       -0.0511
     15 C           5.3336   -2.5761    0.4455 C.ar    1  LIG1       -0.0492
     16 C           2.2961   -0.0583    1.3421 C.ar    1  LIG1       -0.0351
     17 C           0.9825    2.3450   -0.4435 C.ar    1  LIG1       -0.0150
     18 C           3.2561    1.2390   -0.6501 C.ar    1  LIG1        0.0552
     19 C           4.9881   -1.3565    1.0273 C.ar    1  LIG1        0.0101
     20 C           3.2823    0.2966    0.3454 C.ar    1  LIG1        0.0293
     21 C           4.5038    1.1315   -1.2788 C.ar    1  LIG1        0.1366
     22 C           2.3063    2.2269   -1.0851 C.ar    1  LIG1        0.0476
     23 C           4.8613    2.0060   -2.3621 C.ar    1  LIG1        0.1819
     24 N           5.2746    0.1774   -0.7552 N.ar    1  LIG1       -0.2621
     25 N           2.6329    3.0367   -2.0534 N.ar    1  LIG1       -0.2986
     26 N           4.5014   -0.3160    0.2329 N.ar    1  LIG1       -0.2507
     27 N           3.8628    2.9275   -2.6673 N.ar    1  LIG1       -0.2281
     28 O           5.9383    1.9438   -2.9465 O.2     1  LIG1       -0.4467
     29 H          -0.3443   -1.0097    4.0152 H       1  LIG1        0.1237
     30 H          -2.4939    2.6551    1.2418 H       1  LIG1        0.1205
     31 H           6.3407   -4.2421    3.2330 H       1  LIG1        0.1288
     32 H           0.5644    1.2973    3.9355 H       1  LIG1        0.1243
     33 H           0.4370   -2.7079    2.3838 H       1  LIG1        0.1219
     34 H          -1.8348    0.5326    0.1397 H       1  LIG1        0.1194
     35 H          -0.9280    4.5792    1.2651 H       1  LIG1        0.1196
     36 H           5.7256   -2.0723    4.2684 H       1  LIG1        0.1324
     37 H           6.0905   -4.5645    0.7870 H       1  LIG1        0.1324
     38 H           2.2479    1.9108    2.2395 H       1  LIG1        0.1319
     39 H           2.1160   -2.1105    0.6780 H       1  LIG1        0.1244
     40 H           0.3806    0.3287   -0.9369 H       1  LIG1        0.1327
     41 H           1.2899    4.3878    0.1929 H       1  LIG1        0.1290
     42 H           4.8639   -0.2294    2.8693 H       1  LIG1        0.1398
     43 H           5.2298   -2.7306   -0.6259 H       1  LIG1        0.1440
     44 H           4.0599    3.5841   -3.4161 H       1  LIG1        0.3943
@<TRIPOS>BOND
     1     1     4   ar
     2     1     5   ar
     3     2     6   ar
     4     2     7   ar
     5     3     8   ar
     6     3     9   ar
     7     4    10   ar
     8     5    11   ar
     9     6    12   ar
    10     7    13   ar
    11     8    14   ar
    12     9    15   ar
    13    10    16   ar
    14    11    16   ar
    15    12    17   ar
    16    13    17   ar
    17    14    19   ar
    18    15    19   ar
    19    16    20    1
    20    17    22    1
    21    18    20   ar
    22    18    21   ar
    23    18    22   ar
    24    19    26    1
    25    20    26   ar
    26    21    23   ar
    27    21    24   ar
    28    22    25   ar
    29    23    27   ar
    30    23    28    2
    31    24    26   ar
    32    25    27   ar
    33     1    29    1
    34     2    30    1
    35     3    31    1
    36     4    32    1
    37     5    33    1
    38     6    34    1
    39     7    35    1
    40     8    36    1
    41     9    37    1
    42    10    38    1
    43    11    39    1
    44    12    40    1
    45    13    41    1
    46    14    42    1
    47    15    43    1
    48    27    44    1
