@<TRIPOS>MOLECULE
AO-476/43250026
 40 43 0 0 0
SMALL
USER_CHARGES

@<TRIPOS>ATOM
      1 C           1.5856    2.8996    0.5033 C.ar    1  LIG1       -0.0855
      2 C           0.6674    1.2892   -1.0460 C.ar    1  LIG1       -0.0891
      3 C           4.5141   -1.5298    2.4326 C.ar    1  LIG1       -0.0650
      4 C           5.9012   -2.4473    0.6800 C.ar    1  LIG1       -0.0585
      5 C           0.3222    3.4698    0.6594 C.ar    1  LIG1       -0.0971
      6 C          -0.5960    1.8593   -0.8899 C.ar    1  LIG1       -0.0994
      7 C           4.9013   -2.5664    3.2817 C.ar    1  LIG1       -0.0422
      8 C           6.2885   -3.4839    1.5292 C.ar    1  LIG1       -0.0385
      9 C           3.3734    0.1941    0.3724 C.ar    1  LIG1       -0.0237
     10 C           5.8417    2.3096   -3.2876 C.ar    1  LIG1        0.0450
     11 C           4.0218    1.5994   -1.4726 C.ar    1  LIG1        0.0634
     12 C           1.7582    1.8093   -0.3494 C.ar    1  LIG1       -0.0668
     13 C           5.0140   -1.4703    1.1317 C.ar    1  LIG1       -0.0194
     14 C           3.0745    1.2155   -0.5121 C.ar    1  LIG1       -0.0338
     15 C          -0.7686    2.9496   -0.0372 C.ar    1  LIG1       -0.1157
     16 C           5.7885   -3.5435    2.8301 C.ar    1  LIG1        0.0658
     17 C           4.6131   -0.3972    0.2528 C.ar    1  LIG1        0.0106
     18 C           5.2596    0.9481   -1.5279 C.ar    1  LIG1        0.0565
     19 C           3.7947    2.6168   -2.3961 C.ar    1  LIG1        0.0071
     20 C          -2.1193    3.5594    0.1294 C.3     1  LIG1       -0.0413
     21 N           6.1675    1.3100   -2.4413 N.ar    1  LIG1       -0.3281
     22 N           4.6913    2.9966   -3.3217 N.ar    1  LIG1       -0.3418
     23 N           5.5410   -0.0400   -0.6676 N.ar    1  LIG1       -0.3292
     24 N           2.5806    3.3372   -2.4262 N.pl3   1  LIG1       -0.3661
     25 F           6.1603   -4.5390    3.6456 F       1  LIG1       -0.2646
     26 H           2.4261    3.3169    1.0528 H       1  LIG1        0.1325
     27 H           0.7858    0.4392   -1.7140 H       1  LIG1        0.1284
     28 H           3.8217   -0.7758    2.7994 H       1  LIG1        0.1443
     29 H           6.2997   -2.4147   -0.3312 H       1  LIG1        0.1583
     30 H           0.1972    4.3197    1.3251 H       1  LIG1        0.1203
     31 H          -1.4404    1.4473   -1.4362 H       1  LIG1        0.1210
     32 H           4.5122   -2.6132    4.2946 H       1  LIG1        0.1343
     33 H           6.9792   -4.2449    1.1783 H       1  LIG1        0.1351
     34 H           2.6674   -0.1324    1.1308 H       1  LIG1        0.1446
     35 H           6.5925    2.5840   -4.0186 H       1  LIG1        0.3084
     36 H          -2.2724    4.3564   -0.6085 H       1  LIG1        0.0593
     37 H          -2.9127    2.8113    0.0031 H       1  LIG1        0.0554
     38 H          -2.2426    3.9864    1.1334 H       1  LIG1        0.0555
     39 H           1.8469    3.0802   -1.7986 H       1  LIG1        0.2829
     40 H           2.4423    4.0270   -3.1358 H       1  LIG1        0.2771
@<TRIPOS>BOND
     1     1     5   ar
     2     1    12   ar
     3     2     6   ar
     4     2    12   ar
     5     3     7   ar
     6     3    13   ar
     7     4     8   ar
     8     4    13   ar
     9     5    15   ar
    10     6    15   ar
    11     7    16   ar
    12     8    16   ar
    13     9    14   ar
    14     9    17   ar
    15    10    21   ar
    16    10    22   ar
    17    11    14   ar
    18    11    18   ar
    19    11    19   ar
    20    12    14    1
    21    13    17    1
    22    15    20    1
    23    16    25    1
    24    17    23   ar
    25    18    21   ar
    26    18    23   ar
    27    19    22   ar
    28    19    24    1
    29     1    26    1
    30     2    27    1
    31     3    28    1
    32     4    29    1
    33     5    30    1
    34     6    31    1
    35     7    32    1
    36     8    33    1
    37     9    34    1
    38    10    35    1
    39    20    36    1
    40    20    37    1
    41    20    38    1
    42    24    39    1
    43    24    40    1
