@<TRIPOS>MOLECULE
AG-690/40750128
 39 41 0 0 0
SMALL
USER_CHARGES

@<TRIPOS>ATOM
      1 C           3.1483    2.9055   -2.3057 C.1     1  LIG1        0.0759
      2 C           4.7331   -1.4340    2.2006 C.ar    1  LIG1       -0.0736
      3 C           6.0374   -2.1536    0.2985 C.ar    1  LIG1       -0.0780
      4 C           0.3804    0.9808   -0.3150 C.ar    1  LIG1       -0.0742
      5 C           1.3045    3.1681    0.1310 C.ar    1  LIG1       -0.0756
      6 C           5.2710   -2.4716    2.9620 C.ar    1  LIG1       -0.0952
      7 C           6.5754   -3.1912    1.0599 C.ar    1  LIG1       -0.0975
      8 C          -0.9018    1.4727   -0.0708 C.ar    1  LIG1       -0.0660
      9 C           0.0223    3.6600    0.3752 C.ar    1  LIG1       -0.0662
     10 C           3.2847    0.2808    0.3302 C.ar    1  LIG1       -0.0185
     11 C           3.6205    1.8343   -1.4748 C.ar    1  LIG1        0.1148
     12 C           1.4836    1.8285   -0.2140 C.ar    1  LIG1       -0.0529
     13 C           5.1163   -1.2751    0.8689 C.ar    1  LIG1       -0.0314
     14 C           2.8137    1.3181   -0.4669 C.ar    1  LIG1       -0.0069
     15 C           6.1921   -3.3502    2.3918 C.ar    1  LIG1       -0.1147
     16 C          -1.0808    2.8123    0.2743 C.ar    1  LIG1       -0.0111
     17 C           4.5594   -0.2014    0.0808 C.ar    1  LIG1       -0.0031
     18 C           4.8803    1.2826   -1.6433 C.ar    1  LIG1        0.0551
     19 C           6.7670   -4.4597    3.2057 C.3     1  LIG1       -0.0414
     20 C           5.0063    1.5336   -4.3699 C.3     1  LIG1        0.0100
     21 N           2.7666    3.7716   -2.9773 N.1     1  LIG1       -0.3588
     22 N           5.3723    0.2745   -0.8889 N.ar    1  LIG1       -0.3602
     23 S           6.0093    1.8662   -2.9071 S.3     1  LIG1       -0.1276
     24 CL         -2.6631    3.4182    0.5770 Cl      1  LIG1       -0.1373
     25 H           4.0157   -0.7578    2.6593 H       1  LIG1        0.1396
     26 H           6.3466   -2.0425   -0.7381 H       1  LIG1        0.1311
     27 H           0.5039   -0.0658   -0.5828 H       1  LIG1        0.1417
     28 H           2.1546    3.8413    0.2146 H       1  LIG1        0.1352
     29 H           4.9659   -2.5885    3.9985 H       1  LIG1        0.1199
     30 H           7.2929   -3.8708    0.6077 H       1  LIG1        0.1208
     31 H          -1.7525    0.8006   -0.1512 H       1  LIG1        0.1386
     32 H          -0.1023    4.7059    0.6444 H       1  LIG1        0.1381
     33 H           2.6744   -0.1400    1.1248 H       1  LIG1        0.1507
     34 H           6.1450   -5.3589    3.1192 H       1  LIG1        0.0590
     35 H           7.7850   -4.7080    2.8784 H       1  LIG1        0.0551
     36 H           6.8332   -4.1829    4.2661 H       1  LIG1        0.0550
     37 H           5.5491    1.8352   -5.2692 H       1  LIG1        0.0892
     38 H           4.0704    2.0949   -4.3135 H       1  LIG1        0.0800
     39 H           4.7801    0.4664   -4.4300 H       1  LIG1        0.0801
@<TRIPOS>BOND
     1     1    11    1
     2     1    21    3
     3     2     6   ar
     4     2    13   ar
     5     3     7   ar
     6     3    13   ar
     7     4     8   ar
     8     4    12   ar
     9     5     9   ar
    10     5    12   ar
    11     6    15   ar
    12     7    15   ar
    13     8    16   ar
    14     9    16   ar
    15    10    14   ar
    16    10    17   ar
    17    11    14   ar
    18    11    18   ar
    19    12    14    1
    20    13    17    1
    21    15    19    1
    22    16    24    1
    23    17    22   ar
    24    18    22   ar
    25    18    23    1
    26    20    23    1
    27     2    25    1
    28     3    26    1
    29     4    27    1
    30     5    28    1
    31     6    29    1
    32     7    30    1
    33     8    31    1
    34     9    32    1
    35    10    33    1
    36    19    34    1
    37    19    35    1
    38    19    36    1
    39    20    37    1
    40    20    38    1
    41    20    39    1
