@<TRIPOS>MOLECULE
AE-641/00006013
 37 40 0 0 0
SMALL
USER_CHARGES

@<TRIPOS>ATOM
      1 C          -1.2218    2.8024    0.3648 C.ar    1  LIG1       -0.1049
      2 C           5.9295   -3.4090    2.6066 C.ar    1  LIG1       -0.1052
      3 C           3.9446    3.3042   -3.1899 C.ar    1  LIG1       -0.0969
      4 C          -0.1251    3.3569    1.0247 C.ar    1  LIG1       -0.1011
      5 C          -1.0377    1.7467   -0.5282 C.ar    1  LIG1       -0.1018
      6 C           5.5547   -2.2075    3.2076 C.ar    1  LIG1       -0.1014
      7 C           5.7926   -3.5718    1.2280 C.ar    1  LIG1       -0.0982
      8 C           5.2049    2.7407   -3.3458 C.ar    1  LIG1       -0.0872
      9 C           3.0962    2.8256   -2.1956 C.ar    1  LIG1       -0.0833
     10 C           1.1556    2.8559    0.7915 C.ar    1  LIG1       -0.0890
     11 C           0.2430    1.2456   -0.7613 C.ar    1  LIG1       -0.0897
     12 C           5.0429   -1.1686    2.4302 C.ar    1  LIG1       -0.0812
     13 C           5.2809   -2.5329    0.4505 C.ar    1  LIG1       -0.0755
     14 C           5.6139    1.7005   -2.5076 C.ar    1  LIG1       -0.0519
     15 C           3.1099    0.2444    0.4723 C.ar    1  LIG1       -0.0327
     16 C           3.5078    1.7793   -1.3527 C.ar    1  LIG1       -0.0361
     17 C           1.3397    1.8002   -0.1014 C.ar    1  LIG1       -0.0703
     18 C           4.9060   -1.3313    1.0516 C.ar    1  LIG1       -0.0348
     19 C           2.6741    1.2783   -0.3438 C.ar    1  LIG1       -0.0495
     20 C           4.7861    1.2026   -1.5052 C.ar    1  LIG1       -0.0189
     21 C           4.3765   -0.2557    0.2473 C.ar    1  LIG1       -0.0079
     22 N           5.2118    0.1990   -0.7147 N.ar    1  LIG1       -0.3745
     23 H          -2.2191    3.1916    0.5477 H       1  LIG1        0.1189
     24 H           6.3295   -4.2172    3.2119 H       1  LIG1        0.1190
     25 H           3.6238    4.1128   -3.8396 H       1  LIG1        0.1218
     26 H          -0.2684    4.1778    1.7212 H       1  LIG1        0.1197
     27 H          -1.8913    1.3136   -1.0413 H       1  LIG1        0.1194
     28 H           5.6627   -2.0800    4.2808 H       1  LIG1        0.1179
     29 H           6.0855   -4.5066    0.7591 H       1  LIG1        0.1180
     30 H           5.8730    3.1083   -4.1193 H       1  LIG1        0.1288
     31 H           2.1170    3.2885   -2.1006 H       1  LIG1        0.1299
     32 H           2.0003    3.2987    1.3140 H       1  LIG1        0.1248
     33 H           0.3709    0.4220   -1.4596 H       1  LIG1        0.1246
     34 H           4.7554   -0.2378    2.9136 H       1  LIG1        0.1261
     35 H           5.1805   -2.6740   -0.6231 H       1  LIG1        0.1384
     36 H           6.6060    1.2762   -2.6506 H       1  LIG1        0.1442
     37 H           2.4799   -0.1591    1.2602 H       1  LIG1        0.1403
@<TRIPOS>BOND
     1     1     4   ar
     2     1     5   ar
     3     2     6   ar
     4     2     7   ar
     5     3     8   ar
     6     3     9   ar
     7     4    10   ar
     8     5    11   ar
     9     6    12   ar
    10     7    13   ar
    11     8    14   ar
    12     9    16   ar
    13    10    17   ar
    14    11    17   ar
    15    12    18   ar
    16    13    18   ar
    17    14    20   ar
    18    15    19   ar
    19    15    21   ar
    20    16    19   ar
    21    16    20   ar
    22    17    19    1
    23    18    21    1
    24    20    22   ar
    25    21    22   ar
    26     1    23    1
    27     2    24    1
    28     3    25    1
    29     4    26    1
    30     5    27    1
    31     6    28    1
    32     7    29    1
    33     8    30    1
    34     9    31    1
    35    10    32    1
    36    11    33    1
    37    12    34    1
    38    13    35    1
    39    14    36    1
    40    15    37    1
