@<TRIPOS>MOLECULE
AO-476/15578130
 37 40 0 0 0
SMALL
USER_CHARGES

@<TRIPOS>ATOM
      1 C           5.5884   -3.4296    2.8708 C.ar    1  LIG1       -0.1027
      2 C           4.7003   -2.4501    3.3151 C.ar    1  LIG1       -0.0953
      3 C           6.0919   -3.3767    1.5711 C.ar    1  LIG1       -0.0992
      4 C           4.3156   -1.4177    2.4597 C.ar    1  LIG1       -0.0721
      5 C           5.7071   -2.3443    0.7155 C.ar    1  LIG1       -0.0788
      6 C           1.3936    3.0031    0.5016 C.ar    1  LIG1       -0.0779
      7 C           0.4791    1.3857   -1.0427 C.ar    1  LIG1       -0.0746
      8 C           0.1300    3.5746    0.6512 C.ar    1  LIG1       -0.0682
      9 C          -0.7845    1.9572   -0.8931 C.ar    1  LIG1       -0.0662
     10 C           3.1810    0.2964    0.3883 C.ar    1  LIG1       -0.0226
     11 C           5.6594    2.3935   -3.2754 C.ar    1  LIG1        0.0457
     12 C           3.8346    1.6926   -1.4617 C.ar    1  LIG1        0.0630
     13 C           1.5681    1.9086   -0.3455 C.ar    1  LIG1       -0.0602
     14 C           4.8190   -1.3648    1.1599 C.ar    1  LIG1       -0.0261
     15 C           2.8847    1.3136   -0.5019 C.ar    1  LIG1       -0.0319
     16 C          -0.9590    3.0517   -0.0459 C.ar    1  LIG1       -0.0128
     17 C           4.4207   -0.2959    0.2748 C.ar    1  LIG1        0.0111
     18 C           5.0723    1.0406   -1.5108 C.ar    1  LIG1        0.0571
     19 C           3.6102    2.7056   -2.3908 C.ar    1  LIG1        0.0067
     20 N           5.9827    1.3979   -2.4235 N.ar    1  LIG1       -0.3274
     21 N           4.5093    3.0807   -3.3158 N.ar    1  LIG1       -0.3412
     22 N           5.3511    0.0566   -0.6450 N.ar    1  LIG1       -0.3278
     23 N           2.3965    3.4263   -2.4275 N.pl3   1  LIG1       -0.3669
     24 CL         -2.5175    3.7583    0.1381 Cl      1  LIG1       -0.1361
     25 H           5.8891   -4.2323    3.5377 H       1  LIG1        0.1224
     26 H           4.3094   -2.4902    4.3277 H       1  LIG1        0.1203
     27 H           6.7845   -4.1382    1.2249 H       1  LIG1        0.1194
     28 H           3.6225   -0.6614    2.8210 H       1  LIG1        0.1435
     29 H           6.1084   -2.3158   -0.2947 H       1  LIG1        0.1291
     30 H           2.2328    3.4221    1.0516 H       1  LIG1        0.1396
     31 H           0.5992    0.5334   -1.7075 H       1  LIG1        0.1434
     32 H           0.0085    4.4284    1.3133 H       1  LIG1        0.1371
     33 H          -1.6240    1.5401   -1.4434 H       1  LIG1        0.1362
     34 H           2.4728   -0.0262    1.1464 H       1  LIG1        0.1464
     35 H           6.4122    2.6641   -4.0058 H       1  LIG1        0.3089
     36 H           1.6610    3.1725   -1.8005 H       1  LIG1        0.2774
     37 H           2.2602    4.1126   -3.1408 H       1  LIG1        0.2811
@<TRIPOS>BOND
     1     1     2   ar
     2     1     3   ar
     3     2     4   ar
     4     3     5   ar
     5     4    14   ar
     6     5    14   ar
     7     6     8   ar
     8     6    13   ar
     9     7     9   ar
    10     7    13   ar
    11     8    16   ar
    12     9    16   ar
    13    10    15   ar
    14    10    17   ar
    15    11    20   ar
    16    11    21   ar
    17    12    15   ar
    18    12    18   ar
    19    12    19   ar
    20    13    15    1
    21    14    17    1
    22    16    24    1
    23    17    22   ar
    24    18    20   ar
    25    18    22   ar
    26    19    21   ar
    27    19    23    1
    28     1    25    1
    29     2    26    1
    30     3    27    1
    31     4    28    1
    32     5    29    1
    33     6    30    1
    34     7    31    1
    35     8    32    1
    36     9    33    1
    37    10    34    1
    38    11    35    1
    39    23    36    1
    40    23    37    1
