@<TRIPOS>MOLECULE
AG-205/12125110
 37 39 0 0 0
SMALL
USER_CHARGES

@<TRIPOS>ATOM
      1 C           3.1018    2.8416   -2.2163 C.1     1  LIG1        0.0650
      2 C           4.5420   -1.4792    2.3588 C.ar    1  LIG1       -0.0722
      3 C           5.8655   -2.2325    0.4832 C.ar    1  LIG1       -0.0768
      4 C           1.1944    2.8720    0.7522 C.ar    1  LIG1       -0.0736
      5 C           0.2824    1.2630   -0.8023 C.ar    1  LIG1       -0.0754
      6 C           5.0530   -2.5180    3.1367 C.ar    1  LIG1       -0.0956
      7 C           6.3766   -3.2714    1.2611 C.ar    1  LIG1       -0.0980
      8 C          -0.0838    3.3860    0.9701 C.ar    1  LIG1       -0.0666
      9 C          -0.9958    1.7769   -0.5844 C.ar    1  LIG1       -0.0671
     10 C           3.1476    0.2409    0.4526 C.ar    1  LIG1       -0.0250
     11 C           3.5330    1.7738   -1.3602 C.ar    1  LIG1        0.1245
     12 C           1.3776    1.8105   -0.1340 C.ar    1  LIG1       -0.0526
     13 C           4.9482   -1.3364    1.0320 C.ar    1  LIG1       -0.0280
     14 C           2.7037    1.2777   -0.3605 C.ar    1  LIG1       -0.0115
     15 C           5.9703   -3.4141    2.5879 C.ar    1  LIG1       -0.1155
     16 C          -1.1790    2.8385    0.3019 C.ar    1  LIG1       -0.0124
     17 C           4.4191   -0.2613    0.2269 C.ar    1  LIG1       -0.0030
     18 C           4.7873    1.2031   -1.5046 C.ar    1  LIG1        0.0263
     19 C           6.5166   -4.5251    3.4195 C.3     1  LIG1       -0.0418
     20 N           2.7531    3.7053   -2.9085 N.1     1  LIG1       -0.3768
     21 N           5.2534    0.1948   -0.7341 N.ar    1  LIG1       -0.3487
     22 N           5.6482    1.6948   -2.5186 N.pl3   1  LIG1       -0.3641
     23 CL         -2.7557    3.4742    0.5701 Cl      1  LIG1       -0.1390
     24 H           3.8272   -0.7892    2.8009 H       1  LIG1        0.1415
     25 H           6.1924   -2.1340   -0.5493 H       1  LIG1        0.1319
     26 H           2.0381    3.3096    1.2804 H       1  LIG1        0.1420
     27 H           0.4092    0.4359   -1.4970 H       1  LIG1        0.1344
     28 H           4.7301   -2.6223    4.1690 H       1  LIG1        0.1188
     29 H           7.0914   -3.9647    0.8255 H       1  LIG1        0.1196
     30 H          -0.2122    4.2147    1.6620 H       1  LIG1        0.1377
     31 H          -1.8400    1.3412   -1.1129 H       1  LIG1        0.1365
     32 H           2.5192   -0.1639    1.2413 H       1  LIG1        0.1367
     33 H           5.8832   -5.4161    3.3302 H       1  LIG1        0.0586
     34 H           7.5359   -4.7905    3.1102 H       1  LIG1        0.0548
     35 H           6.5701   -4.2409    4.4785 H       1  LIG1        0.0546
     36 H           5.3122    2.4048   -3.1312 H       1  LIG1        0.2795
     37 H           6.5313    1.2540   -2.6537 H       1  LIG1        0.2809
@<TRIPOS>BOND
     1     1    11    1
     2     1    20    3
     3     2     6   ar
     4     2    13   ar
     5     3     7   ar
     6     3    13   ar
     7     4     8   ar
     8     4    12   ar
     9     5     9   ar
    10     5    12   ar
    11     6    15   ar
    12     7    15   ar
    13     8    16   ar
    14     9    16   ar
    15    10    14   ar
    16    10    17   ar
    17    11    14   ar
    18    11    18   ar
    19    12    14    1
    20    13    17    1
    21    15    19    1
    22    16    23    1
    23    17    21   ar
    24    18    21   ar
    25    18    22    1
    26     2    24    1
    27     3    25    1
    28     4    26    1
    29     5    27    1
    30     6    28    1
    31     7    29    1
    32     8    30    1
    33     9    31    1
    34    10    32    1
    35    19    33    1
    36    19    34    1
    37    19    35    1
    38    22    36    1
    39    22    37    1
