@<TRIPOS>MOLECULE
AO-476/42129205
 37 39 0 0 0
SMALL
USER_CHARGES

@<TRIPOS>ATOM
      1 C           3.1019    2.8417   -2.2163 C.1     1  LIG1        0.0641
      2 C           1.1945    2.8720    0.7521 C.ar    1  LIG1       -0.0865
      3 C           0.2826    1.2629   -0.8023 C.ar    1  LIG1       -0.0851
      4 C           4.5419   -1.4791    2.3588 C.ar    1  LIG1       -0.0644
      5 C           5.8654   -2.2324    0.4832 C.ar    1  LIG1       -0.0599
      6 C          -0.0837    3.3858    0.9702 C.ar    1  LIG1       -0.0986
      7 C          -0.9958    1.7766   -0.5841 C.ar    1  LIG1       -0.0983
      8 C           5.0529   -2.5180    3.1367 C.ar    1  LIG1       -0.0429
      9 C           6.3765   -3.2713    1.2612 C.ar    1  LIG1       -0.0405
     10 C           3.1476    0.2410    0.4525 C.ar    1  LIG1       -0.0274
     11 C           3.5330    1.7739   -1.3603 C.ar    1  LIG1        0.1240
     12 C           1.3778    1.8106   -0.1342 C.ar    1  LIG1       -0.0595
     13 C           4.9481   -1.3364    1.0320 C.ar    1  LIG1       -0.0220
     14 C           2.7036    1.2779   -0.3606 C.ar    1  LIG1       -0.0148
     15 C          -1.1789    2.8382    0.3022 C.ar    1  LIG1       -0.1151
     16 C           5.9703   -3.4140    2.5879 C.ar    1  LIG1        0.0640
     17 C           4.4191   -0.2613    0.2268 C.ar    1  LIG1       -0.0043
     18 C           4.7874    1.2032   -1.5046 C.ar    1  LIG1        0.0231
     19 C          -2.5456    3.3876    0.5352 C.3     1  LIG1       -0.0419
     20 N           2.7532    3.7054   -2.9085 N.1     1  LIG1       -0.3800
     21 N           5.2534    0.1948   -0.7342 N.ar    1  LIG1       -0.3516
     22 N           5.6484    1.6948   -2.5186 N.pl3   1  LIG1       -0.3643
     23 F           6.4610   -4.4117    3.3350 F       1  LIG1       -0.2662
     24 H           2.0383    3.3102    1.2799 H       1  LIG1        0.1233
     25 H           0.4091    0.4349   -1.4956 H       1  LIG1        0.1304
     26 H           3.8274   -0.7889    2.8009 H       1  LIG1        0.1454
     27 H           6.1921   -2.1344   -0.5493 H       1  LIG1        0.1548
     28 H          -0.2169    4.2137    1.6616 H       1  LIG1        0.1202
     29 H          -1.8435    1.3434   -1.1084 H       1  LIG1        0.1213
     30 H           4.7366   -2.6295    4.1696 H       1  LIG1        0.1335
     31 H           7.0909   -3.9693    0.8347 H       1  LIG1        0.1326
     32 H           2.5191   -0.1638    1.2411 H       1  LIG1        0.1332
     33 H          -2.7590    4.1951   -0.1757 H       1  LIG1        0.0532
     34 H          -3.3125    2.6107    0.4198 H       1  LIG1        0.0579
     35 H          -2.6470    3.7849    1.5537 H       1  LIG1        0.0574
     36 H           5.3123    2.4049   -3.1311 H       1  LIG1        0.2916
     37 H           6.5314    1.2540   -2.6536 H       1  LIG1        0.2936
@<TRIPOS>BOND
     1     1    11    1
     2     1    20    3
     3     2     6   ar
     4     2    12   ar
     5     3     7   ar
     6     3    12   ar
     7     4     8   ar
     8     4    13   ar
     9     5     9   ar
    10     5    13   ar
    11     6    15   ar
    12     7    15   ar
    13     8    16   ar
    14     9    16   ar
    15    10    14   ar
    16    10    17   ar
    17    11    14   ar
    18    11    18   ar
    19    12    14    1
    20    13    17    1
    21    15    19    1
    22    16    23    1
    23    17    21   ar
    24    18    21   ar
    25    18    22    1
    26     2    24    1
    27     3    25    1
    28     4    26    1
    29     5    27    1
    30     6    28    1
    31     7    29    1
    32     8    30    1
    33     9    31    1
    34    10    32    1
    35    19    33    1
    36    19    34    1
    37    19    35    1
    38    22    36    1
    39    22    37    1
