@<TRIPOS>MOLECULE
AG-927/42926100
 32 34 0 0 0
SMALL
USER_CHARGES

@<TRIPOS>ATOM
      1 C          -1.1834    3.0061    0.1300 C.ar    1  LIG1       -0.1055
      2 C           6.0925   -3.3445    2.4434 C.ar    1  LIG1       -0.1004
      3 C          -0.0602    3.7058   -0.3112 C.ar    1  LIG1       -0.0995
      4 C          -1.0681    1.6680    0.5064 C.ar    1  LIG1       -0.0995
      5 C           5.8521   -3.4540    1.0738 C.ar    1  LIG1       -0.0906
      6 C           5.6727   -2.2092    3.1367 C.ar    1  LIG1       -0.0934
      7 C           1.1781    3.0673   -0.3761 C.ar    1  LIG1       -0.0772
      8 C           0.1703    1.0294    0.4416 C.ar    1  LIG1       -0.0767
      9 C           5.1919   -2.4281    0.3974 C.ar    1  LIG1       -0.0532
     10 C           5.0127   -1.1833    2.4602 C.ar    1  LIG1       -0.0573
     11 C           3.6141    1.3510   -0.9664 C.ar    1  LIG1       -0.0482
     12 C           1.2935    1.7290    0.0004 C.ar    1  LIG1       -0.0375
     13 C           4.7723   -1.2928    1.0906 C.ar    1  LIG1       -0.0104
     14 C           2.5683    1.0714   -0.0665 C.ar    1  LIG1        0.0011
     15 C           4.6052    0.4624   -0.6279 C.ar    1  LIG1       -0.0460
     16 C           5.9500    0.2610   -1.2026 C.3     1  LIG1       -0.0097
     17 N           2.8672    0.0824    0.7800 N.ar    1  LIG1       -0.3192
     18 N           4.1119   -0.2673    0.4135 N.ar    1  LIG1       -0.2989
     19 H          -2.1476    3.5035    0.1816 H       1  LIG1        0.1178
     20 H           6.6048   -4.1438    2.9708 H       1  LIG1        0.1213
     21 H          -0.1496    4.7480   -0.6031 H       1  LIG1        0.1189
     22 H          -1.9425    1.1237    0.8510 H       1  LIG1        0.1179
     23 H           6.1776   -4.3385    0.5341 H       1  LIG1        0.1282
     24 H           5.8592   -2.1254    4.2035 H       1  LIG1        0.1283
     25 H           2.0445    3.6262   -0.7222 H       1  LIG1        0.1295
     26 H           0.2436   -0.0142    0.7385 H       1  LIG1        0.1304
     27 H           5.0101   -2.5265   -0.6701 H       1  LIG1        0.1371
     28 H           4.6902   -0.3042    3.0130 H       1  LIG1        0.1315
     29 H           3.6485    2.0925   -1.7522 H       1  LIG1        0.1267
     30 H           6.6979    0.8904   -0.6932 H       1  LIG1        0.0787
     31 H           6.2823   -0.7878   -1.1200 H       1  LIG1        0.0826
     32 H           5.9813    0.5068   -2.2779 H       1  LIG1        0.0731
@<TRIPOS>BOND
     1     1     3   ar
     2     1     4   ar
     3     2     5   ar
     4     2     6   ar
     5     3     7   ar
     6     4     8   ar
     7     5     9   ar
     8     6    10   ar
     9     7    12   ar
    10     8    12   ar
    11     9    13   ar
    12    10    13   ar
    13    11    14   ar
    14    11    15   ar
    15    12    14    1
    16    13    18    1
    17    14    17   ar
    18    15    16    1
    19    15    18   ar
    20    17    18   ar
    21     1    19    1
    22     2    20    1
    23     3    21    1
    24     4    22    1
    25     5    23    1
    26     6    24    1
    27     7    25    1
    28     8    26    1
    29     9    27    1
    30    10    28    1
    31    11    29    1
    32    16    30    1
    33    16    31    1
    34    16    32    1
