@<TRIPOS>MOLECULE
AI-031/11219617
 33 36 0 0 0
SMALL
USER_CHARGES

@<TRIPOS>ATOM
      1 C           5.8301   -3.3995    2.6501 C.ar    1  LIG1       -0.0956
      2 C           5.4546   -2.1768    3.2064 C.ar    1  LIG1       -0.0895
      3 C           5.7824   -3.5810    1.2679 C.ar    1  LIG1       -0.0862
      4 C          -1.0702    1.7703    0.2702 C.ar    1  LIG1       -0.1007
      5 C           5.0313   -1.1355    2.3804 C.ar    1  LIG1       -0.0559
      6 C           5.3591   -2.5397    0.4419 C.ar    1  LIG1       -0.0498
      7 C           0.0860    1.2843   -0.4061 C.ar    1  LIG1       -0.0806
      8 C           3.3352    0.3233    0.2279 C.ar    1  LIG1        0.0141
      9 C          -0.9234    3.0803    0.6701 C.ar    1  LIG1       -0.0444
     10 C           3.3783    1.2688   -0.7553 C.ar    1  LIG1        0.0314
     11 C           4.6786    1.1846   -1.3731 C.ar    1  LIG1        0.0520
     12 C           4.9835   -1.3169    0.9983 C.ar    1  LIG1       -0.0007
     13 C           2.3612    2.1472   -1.0971 C.ar    1  LIG1        0.0490
     14 C           1.0724    2.2416   -0.4975 C.ar    1  LIG1        0.0198
     15 C           5.0127    2.0459   -2.4281 C.ar    1  LIG1        0.0436
     16 C           6.3009    2.0793   -3.1650 C.3     1  LIG1        0.0163
     17 N           5.3879    0.2143   -0.7715 N.ar    1  LIG1       -0.2953
     18 N           2.7146    2.9681   -2.1218 N.ar    1  LIG1       -0.2659
     19 N           4.0221    2.9156   -2.7756 N.ar    1  LIG1       -0.2688
     20 N           4.5605   -0.2759    0.1737 N.ar    1  LIG1       -0.2709
     21 S           0.6034    3.7190    0.2304 S.2     1  LIG1       -0.1190
     22 H           6.1614   -4.2100    3.2926 H       1  LIG1        0.1273
     23 H           5.4929   -2.0348    4.2824 H       1  LIG1        0.1341
     24 H           6.0764   -4.5330    0.8354 H       1  LIG1        0.1335
     25 H          -1.9645    1.1892    0.4536 H       1  LIG1        0.1196
     26 H           4.7421   -0.1871    2.8269 H       1  LIG1        0.1336
     27 H           5.3274   -2.6944   -0.6338 H       1  LIG1        0.1465
     28 H           0.1807    0.2814   -0.8040 H       1  LIG1        0.1372
     29 H           2.5754    0.0269    0.9397 H       1  LIG1        0.2386
     30 H          -1.6399    3.6929    1.1989 H       1  LIG1        0.1722
     31 H           6.2703    1.4046   -4.0324 H       1  LIG1        0.0865
     32 H           6.5348    3.0917   -3.5270 H       1  LIG1        0.0867
     33 H           7.1423    1.7752   -2.5243 H       1  LIG1        0.0818
@<TRIPOS>BOND
     1     1     2   ar
     2     1     3   ar
     3     2     5   ar
     4     3     6   ar
     5     4     7   ar
     6     4     9   ar
     7     5    12   ar
     8     6    12   ar
     9     7    14   ar
    10     8    10   ar
    11     8    20   ar
    12     9    21   ar
    13    10    11   ar
    14    10    13   ar
    15    11    15   ar
    16    11    17   ar
    17    12    20    1
    18    13    14    1
    19    13    18   ar
    20    14    21   ar
    21    15    16    1
    22    15    19   ar
    23    17    20   ar
    24    18    19   ar
    25     1    22    1
    26     2    23    1
    27     3    24    1
    28     4    25    1
    29     5    26    1
    30     6    27    1
    31     7    28    1
    32     8    29    1
    33     9    30    1
    34    16    31    1
    35    16    32    1
    36    16    33    1
