@<TRIPOS>MOLECULE
AG-205/33140043
 49 53 0 0 0
SMALL
USER_CHARGES

@<TRIPOS>ATOM
      1 C           5.9421   -3.5737    2.7705 C.ar    1  LIG1       -0.1029
      2 C           5.5822   -2.3547    3.3451 C.ar    1  LIG1       -0.0991
      3 C           5.8348   -3.7534    1.3914 C.ar    1  LIG1       -0.0960
      4 C           5.1149   -1.3155    2.5406 C.ar    1  LIG1       -0.0785
      5 C           5.3674   -2.7141    0.5869 C.ar    1  LIG1       -0.0731
      6 C           0.3817    0.9184   -0.2512 C.ar    1  LIG1       -0.0778
      7 C           1.3866    3.0732    0.1781 C.ar    1  LIG1       -0.0864
      8 C          -0.8857    1.4764   -0.0848 C.ar    1  LIG1       -0.0531
      9 C           0.1191    3.6311    0.3445 C.ar    1  LIG1       -0.0652
     10 C           3.2578    0.1031    0.5319 C.ar    1  LIG1       -0.0240
     11 C           3.7009    1.6124   -1.2950 C.ar    1  LIG1        0.0113
     12 C           1.5179    1.7169   -0.1199 C.ar    1  LIG1       -0.0649
     13 C           5.0075   -1.4951    1.1615 C.ar    1  LIG1       -0.0285
     14 C           2.8303    1.1393   -0.2922 C.ar    1  LIG1       -0.0439
     15 C           3.5689    2.6400   -2.2833 C.ar    1  LIG1       -0.0472
     16 C          -1.0171    2.8327    0.2131 C.ar    1  LIG1       -0.0117
     17 C           4.5233   -0.4177    0.3281 C.ar    1  LIG1        0.0036
     18 C           4.6917    2.7633   -3.0717 C.ar    1  LIG1        0.0761
     19 C           4.9446    0.9962   -1.3870 C.ar    1  LIG1        0.0558
     20 C           4.9482    3.6609   -4.1537 C.2     1  LIG1        0.0672
     21 C           3.4073    5.5853   -4.9742 C.3     1  LIG1       -0.0527
     22 C           4.0394    4.9854   -6.1959 C.3     1  LIG1       -0.0530
     23 C           3.7783    4.1314   -4.9899 C.3     1  LIG1        0.0093
     24 C          -2.3159    4.7699    0.6782 C.3     1  LIG1        0.0253
     25 N           5.4022   -0.0096   -0.6122 N.ar    1  LIG1       -0.3501
     26 N           2.4714    3.4203   -2.4475 N.pl3   1  LIG1       -0.3984
     27 O           6.0657    4.1023   -4.4892 O.2     1  LIG1       -0.4769
     28 O          -2.2539    3.3770    0.3748 O.3     1  LIG1       -0.4154
     29 S           5.9109    1.6483   -2.6317 S.2     1  LIG1       -0.0489
     30 H           6.3075   -4.3821    3.3968 H       1  LIG1        0.1220
     31 H           5.6673   -2.2140    4.4187 H       1  LIG1        0.1197
     32 H           6.1162   -4.7018    0.9431 H       1  LIG1        0.1201
     33 H           4.8385   -0.3710    3.0037 H       1  LIG1        0.1292
     34 H           5.2898   -2.8686   -0.4866 H       1  LIG1        0.1409
     35 H           0.4678   -0.1404   -0.4833 H       1  LIG1        0.1420
     36 H           2.2627    3.7087    0.2837 H       1  LIG1        0.1373
     37 H          -1.7672    0.8494   -0.1886 H       1  LIG1        0.1333
     38 H           0.0228    4.6884    0.5763 H       1  LIG1        0.1159
     39 H           2.6124   -0.2859    1.3152 H       1  LIG1        0.1454
     40 H           4.0098    6.2556   -4.3734 H       1  LIG1        0.0673
     41 H           2.3596    5.8547   -5.0306 H       1  LIG1        0.0663
     42 H           3.4156    4.8549   -7.0718 H       1  LIG1        0.0672
     43 H           5.0669    5.2501   -6.4138 H       1  LIG1        0.0652
     44 H           2.9613    3.4216   -5.0625 H       1  LIG1        0.0822
     45 H          -3.3602    5.0749    0.7814 H       1  LIG1        0.1236
     46 H          -1.8362    5.3395   -0.1216 H       1  LIG1        0.0905
     47 H          -1.7906    4.9526    1.6186 H       1  LIG1        0.0906
     48 H           1.6227    3.2870   -1.8842 H       1  LIG1        0.2666
     49 H           2.4079    4.1134   -3.2031 H       1  LIG1        0.2735
@<TRIPOS>BOND
     1     1     2   ar
     2     1     3   ar
     3     2     4   ar
     4     3     5   ar
     5     4    13   ar
     6     5    13   ar
     7     6     8   ar
     8     6    12   ar
     9     7     9   ar
    10     7    12   ar
    11     8    16   ar
    12     9    16   ar
    13    10    14   ar
    14    10    17   ar
    15    11    14   ar
    16    11    15   ar
    17    11    19   ar
    18    12    14    1
    19    13    17    1
    20    15    18   ar
    21    15    26    1
    22    16    28    1
    23    17    25   ar
    24    18    20    1
    25    18    29   ar
    26    19    25   ar
    27    19    29   ar
    28    20    23    1
    29    20    27    2
    30    21    22    1
    31    21    23    1
    32    22    23    1
    33    24    28    1
    34     1    30    1
    35     2    31    1
    36     3    32    1
    37     4    33    1
    38     5    34    1
    39     6    35    1
    40     7    36    1
    41     8    37    1
    42     9    38    1
    43    10    39    1
    44    21    40    1
    45    21    41    1
    46    22    42    1
    47    22    43    1
    48    23    44    1
    49    24    45    1
    50    24    46    1
    51    24    47    1
    52    26    48    1
    53    26    49    1
