@<TRIPOS>MOLECULE
AO-476/43249988
 44 48 0 0 0
SMALL
USER_CHARGES

@<TRIPOS>ATOM
      1 C           0.3953   -0.7425    3.2661 C.ar    1  LIG1       -0.0980
      2 C          -1.5198    2.5683    0.7696 C.ar    1  LIG1       -0.1012
      3 C           0.9067    0.5544    3.2214 C.ar    1  LIG1       -0.0918
      4 C           0.8344   -1.6973    2.3489 C.ar    1  LIG1       -0.0958
      5 C          -1.1492    1.3749    0.1499 C.ar    1  LIG1       -0.0960
      6 C          -0.6393    3.6501    0.7826 C.ar    1  LIG1       -0.0947
      7 C           1.8571    0.8966    2.2596 C.ar    1  LIG1       -0.0744
      8 C           1.7848   -1.3551    1.3869 C.ar    1  LIG1       -0.0797
      9 C           0.1019    1.2632   -0.4567 C.ar    1  LIG1       -0.0719
     10 C           0.6119    3.5384    0.1761 C.ar    1  LIG1       -0.0714
     11 C           5.1291   -1.1754    2.4035 C.ar    1  LIG1       -0.0367
     12 C           5.3336   -2.5759    0.4455 C.ar    1  LIG1       -0.0389
     13 C           5.6152   -2.2142    3.1973 C.ar    1  LIG1       -0.0531
     14 C           5.8197   -3.6148    1.2393 C.ar    1  LIG1       -0.0543
     15 C           2.2961   -0.0581    1.3423 C.ar    1  LIG1       -0.0357
     16 C           0.9825    2.3450   -0.4435 C.ar    1  LIG1       -0.0150
     17 C           3.2560    1.2390   -0.6501 C.ar    1  LIG1        0.0564
     18 C           4.9882   -1.3563    1.0276 C.ar    1  LIG1        0.0173
     19 C           5.9604   -3.4339    2.6152 C.ar    1  LIG1       -0.0032
     20 C           3.2823    0.2967    0.3456 C.ar    1  LIG1        0.0294
     21 C           4.5038    1.1314   -1.2788 C.ar    1  LIG1        0.1379
     22 C           2.3062    2.2268   -1.0852 C.ar    1  LIG1        0.0483
     23 C           4.8613    2.0058   -2.3623 C.ar    1  LIG1        0.1831
     24 N           5.2746    0.1773   -0.7551 N.ar    1  LIG1       -0.2614
     25 N           2.6329    3.0365   -2.0535 N.ar    1  LIG1       -0.2979
     26 N           4.5015   -0.3159    0.2331 N.ar    1  LIG1       -0.2490
     27 N           3.8627    2.9272   -2.6675 N.ar    1  LIG1       -0.2276
     28 O           5.9382    1.9435   -2.9466 O.2     1  LIG1       -0.4457
     29 CL          6.5625   -4.7146    3.5945 Cl      1  LIG1       -0.1307
     30 H          -0.3442   -1.0092    4.0156 H       1  LIG1        0.1244
     31 H          -2.4939    2.6552    1.2418 H       1  LIG1        0.1207
     32 H           0.5645    1.2978    3.9356 H       1  LIG1        0.1250
     33 H           0.4371   -2.7076    2.3844 H       1  LIG1        0.1225
     34 H          -1.8348    0.5327    0.1400 H       1  LIG1        0.1196
     35 H          -0.9280    4.5794    1.2649 H       1  LIG1        0.1196
     36 H           2.2480    1.9111    2.2394 H       1  LIG1        0.1325
     37 H           2.1161   -2.1104    0.6784 H       1  LIG1        0.1242
     38 H           0.3806    0.3286   -0.9367 H       1  LIG1        0.1328
     39 H           1.2899    4.3878    0.1926 H       1  LIG1        0.1291
     40 H           4.8639   -0.2300    2.8705 H       1  LIG1        0.1566
     41 H           5.2290   -2.7300   -0.6258 H       1  LIG1        0.1517
     42 H           5.7194   -2.0598    4.2682 H       1  LIG1        0.1489
     43 H           6.0845   -4.5599    0.7721 H       1  LIG1        0.1489
     44 H           4.0598    3.5838   -3.4164 H       1  LIG1        0.3948
@<TRIPOS>BOND
     1     1     3   ar
     2     1     4   ar
     3     2     5   ar
     4     2     6   ar
     5     3     7   ar
     6     4     8   ar
     7     5     9   ar
     8     6    10   ar
     9     7    15   ar
    10     8    15   ar
    11     9    16   ar
    12    10    16   ar
    13    11    13   ar
    14    11    18   ar
    15    12    14   ar
    16    12    18   ar
    17    13    19   ar
    18    14    19   ar
    19    15    20    1
    20    16    22    1
    21    17    20   ar
    22    17    21   ar
    23    17    22   ar
    24    18    26    1
    25    19    29    1
    26    20    26   ar
    27    21    23   ar
    28    21    24   ar
    29    22    25   ar
    30    23    27   ar
    31    23    28    2
    32    24    26   ar
    33    25    27   ar
    34     1    30    1
    35     2    31    1
    36     3    32    1
    37     4    33    1
    38     5    34    1
    39     6    35    1
    40     7    36    1
    41     8    37    1
    42     9    38    1
    43    10    39    1
    44    11    40    1
    45    12    41    1
    46    13    42    1
    47    14    43    1
    48    27    44    1
