@<TRIPOS>MOLECULE
AH-487/40652398
 59 63 0 0 0
SMALL
USER_CHARGES

@<TRIPOS>ATOM
      1 C           9.8205    0.8316   -4.0702 C.ar    1  LIG1       -0.1017
      2 C           6.0820   -3.3468    2.4511 C.ar    1  LIG1       -0.0995
      3 C           8.7198    1.2632   -4.8101 C.ar    1  LIG1       -0.0977
      4 C           9.6728    0.5169   -2.7193 C.ar    1  LIG1       -0.0953
      5 C           5.8426   -3.4590    1.0816 C.ar    1  LIG1       -0.0901
      6 C           5.6666   -2.2077    3.1408 C.ar    1  LIG1       -0.0905
      7 C           7.4712    1.3800   -4.1992 C.ar    1  LIG1       -0.0772
      8 C           8.4243    0.6339   -2.1084 C.ar    1  LIG1       -0.0726
      9 C           0.2171    1.2436   -0.7434 C.ar    1  LIG1       -0.0727
     10 C           1.1284    2.8540    0.8100 C.ar    1  LIG1       -0.0726
     11 C          -1.0244    1.8750   -0.6697 C.ar    1  LIG1       -0.0904
     12 C          -0.1132    3.4855    0.8837 C.ar    1  LIG1       -0.0886
     13 C           5.1879   -2.4319    0.4016 C.ar    1  LIG1       -0.0516
     14 C           5.0120   -1.1808    2.4609 C.ar    1  LIG1       -0.0519
     15 C           5.1209    2.1378   -2.6683 C.ar    1  LIG1       -0.0093
     16 C           3.6235    1.3577   -0.9818 C.ar    1  LIG1        0.0522
     17 C           7.3235    1.0654   -2.8484 C.ar    1  LIG1       -0.0258
     18 C           1.2935    1.7331   -0.0035 C.ar    1  LIG1       -0.0257
     19 C          -1.1897    2.9959    0.1439 C.ar    1  LIG1       -0.1071
     20 C           3.8785    2.2366   -2.0418 C.ar    1  LIG1        0.0708
     21 C           4.7726   -1.2928    1.0913 C.ar    1  LIG1        0.0041
     22 C           6.0290    1.1865   -2.2155 C.ar    1  LIG1        0.0115
     23 C           2.5763    1.0809   -0.0807 C.ar    1  LIG1        0.0483
     24 C           4.6173    0.4570   -0.6316 C.ar    1  LIG1        0.0692
     25 C          -3.6177    2.6967    0.7444 C.3     1  LIG1       -0.0616
     26 C          -2.9725    4.1860   -1.1796 C.3     1  LIG1       -0.0617
     27 C          -2.5826    4.9181    1.1642 C.3     1  LIG1       -0.0615
     28 C          -2.5171    3.6710    0.2211 C.3     1  LIG1       -0.0608
     29 C           2.9012    3.2576   -2.5238 C.3     1  LIG1        0.3674
     30 N           5.8292    0.3160   -1.1964 N.ar    1  LIG1       -0.3283
     31 N           2.8722    0.0924    0.7698 N.ar    1  LIG1       -0.2734
     32 N           4.1181   -0.2667    0.4108 N.ar    1  LIG1       -0.2421
     33 F           3.3636    4.0056   -3.5679 F       1  LIG1       -0.1813
     34 F           1.7245    2.7215   -2.9615 F       1  LIG1       -0.1760
     35 F           2.5587    4.1532   -1.5533 F       1  LIG1       -0.1752
     36 H          10.7922    0.7391   -4.5464 H       1  LIG1        0.1232
     37 H           6.5899   -4.1469    2.9813 H       1  LIG1        0.1219
     38 H           8.8341    1.5065   -5.8623 H       1  LIG1        0.1217
     39 H          10.5293    0.1796   -2.1429 H       1  LIG1        0.1204
     40 H           6.1646   -4.3464    0.5447 H       1  LIG1        0.1288
     41 H           5.8522   -2.1219    4.2076 H       1  LIG1        0.1281
     42 H           6.6226    1.7175   -4.7898 H       1  LIG1        0.1309
     43 H           8.3243    0.3844   -1.0547 H       1  LIG1        0.1402
     44 H           0.3291    0.3704   -1.3818 H       1  LIG1        0.1393
     45 H           1.9578    3.2478    1.3929 H       1  LIG1        0.1315
     46 H          -1.8577    1.4877   -1.2499 H       1  LIG1        0.1233
     47 H          -0.2336    4.3584    1.5199 H       1  LIG1        0.1261
     48 H           5.0068   -2.5323   -0.6658 H       1  LIG1        0.1374
     49 H           4.6929   -0.2987    3.0108 H       1  LIG1        0.1368
     50 H           5.3698    2.7975   -3.4957 H       1  LIG1        0.1587
     51 H          -4.6049    3.1689    0.8107 H       1  LIG1        0.0382
     52 H          -3.7240    1.8235    0.0914 H       1  LIG1        0.0403
     53 H          -3.3554    2.3301    1.7439 H       1  LIG1        0.0387
     54 H          -3.9476    4.6827   -1.1270 H       1  LIG1        0.0387
     55 H          -2.2698    4.9058   -1.6155 H       1  LIG1        0.0388
     56 H          -3.0678    3.3473   -1.8794 H       1  LIG1        0.0386
     57 H          -3.5775    5.3788    1.1871 H       1  LIG1        0.0386
     58 H          -2.3328    4.6408    2.1950 H       1  LIG1        0.0403
     59 H          -1.8773    5.6912    0.8377 H       1  LIG1        0.0383
@<TRIPOS>BOND
     1     1     3   ar
     2     1     4   ar
     3     2     5   ar
     4     2     6   ar
     5     3     7   ar
     6     4     8   ar
     7     5    13   ar
     8     6    14   ar
     9     7    17   ar
    10     8    17   ar
    11     9    11   ar
    12     9    18   ar
    13    10    12   ar
    14    10    18   ar
    15    11    19   ar
    16    12    19   ar
    17    13    21   ar
    18    14    21   ar
    19    15    20   ar
    20    15    22   ar
    21    16    20   ar
    22    16    23   ar
    23    16    24   ar
    24    17    22    1
    25    18    23    1
    26    19    28    1
    27    20    29    1
    28    21    32    1
    29    22    30   ar
    30    23    31   ar
    31    24    30   ar
    32    24    32   ar
    33    25    28    1
    34    26    28    1
    35    27    28    1
    36    29    33    1
    37    29    34    1
    38    29    35    1
    39    31    32   ar
    40     1    36    1
    41     2    37    1
    42     3    38    1
    43     4    39    1
    44     5    40    1
    45     6    41    1
    46     7    42    1
    47     8    43    1
    48     9    44    1
    49    10    45    1
    50    11    46    1
    51    12    47    1
    52    13    48    1
    53    14    49    1
    54    15    50    1
    55    25    51    1
    56    25    52    1
    57    25    53    1
    58    26    54    1
    59    26    55    1
    60    26    56    1
    61    27    57    1
    62    27    58    1
    63    27    59    1
