@<TRIPOS>MOLECULE
AO-476/43250025
 41 44 0 0 0
SMALL
USER_CHARGES

@<TRIPOS>ATOM
      1 C           6.0550   -3.4978    2.6346 C.ar    1  LIG1       -0.1030
      2 C           5.6863   -2.2885    3.2239 C.ar    1  LIG1       -0.0994
      3 C           5.9287   -3.6690    1.2559 C.ar    1  LIG1       -0.0956
      4 C           0.0774    3.2438    1.0228 C.ar    1  LIG1       -0.0969
      5 C           5.1913   -1.2504    2.4345 C.ar    1  LIG1       -0.0786
      6 C           5.4336   -2.6310    0.4667 C.ar    1  LIG1       -0.0721
      7 C           1.3605    2.7557    0.7759 C.ar    1  LIG1       -0.0846
      8 C          -1.0202    2.6815    0.3712 C.ar    1  LIG1       -0.0702
      9 C           0.4484    1.1429   -0.7746 C.ar    1  LIG1       -0.0440
     10 C           3.2903    0.1661    0.4494 C.ar    1  LIG1       -0.0213
     11 C           5.4156    2.5391   -3.2675 C.ar    1  LIG1        0.0449
     12 C           3.7484    1.6653   -1.3787 C.ar    1  LIG1        0.0646
     13 C           5.0649   -1.4216    1.0560 C.ar    1  LIG1       -0.0261
     14 C           1.5460    1.7051   -0.1228 C.ar    1  LIG1       -0.0570
     15 C           2.8823    1.1956   -0.3803 C.ar    1  LIG1       -0.0280
     16 C          -0.8348    1.6310   -0.5276 C.ar    1  LIG1       -0.0108
     17 C           4.5526   -0.3468    0.2394 C.ar    1  LIG1        0.0112
     18 C           5.0161    1.0903   -1.5267 C.ar    1  LIG1        0.0569
     19 C           3.4099    2.6963   -2.2516 C.ar    1  LIG1        0.0073
     20 C          -1.6449    0.0116   -2.0693 C.3     1  LIG1        0.0238
     21 N           5.8469    1.5342   -2.4766 N.ar    1  LIG1       -0.3281
     22 N           4.2277    3.1577   -3.2124 N.ar    1  LIG1       -0.3419
     23 N           5.4033    0.0937   -0.7189 N.ar    1  LIG1       -0.3282
     24 N           2.1569    3.3443   -2.1878 N.pl3   1  LIG1       -0.3661
     25 O          -1.9059    1.0825   -1.1634 O.3     1  LIG1       -0.4182
     26 H           6.4420   -4.3053    3.2490 H       1  LIG1        0.1220
     27 H           5.7862   -2.1544    4.2970 H       1  LIG1        0.1192
     28 H           6.2169   -4.6099    0.7963 H       1  LIG1        0.1201
     29 H          -0.0669    4.0619    1.7224 H       1  LIG1        0.1286
     30 H           4.9083   -0.3136    2.9088 H       1  LIG1        0.1293
     31 H           5.3414   -2.7788   -0.6066 H       1  LIG1        0.1434
     32 H           2.2061    3.2045    1.2918 H       1  LIG1        0.1268
     33 H          -2.0175    3.0657    0.5675 H       1  LIG1        0.1170
     34 H           0.5835    0.3236   -1.4781 H       1  LIG1        0.1384
     35 H           2.6496   -0.2255    1.2345 H       1  LIG1        0.1465
     36 H           6.1054    2.8805   -4.0296 H       1  LIG1        0.3081
     37 H          -2.5848   -0.3335   -2.5072 H       1  LIG1        0.0898
     38 H          -1.1568   -0.8076   -1.5355 H       1  LIG1        0.0900
     39 H          -0.9857    0.3704   -2.8634 H       1  LIG1        0.1230
     40 H           1.4771    3.0244   -1.5292 H       1  LIG1        0.2824
     41 H           1.9381    4.0468   -2.8638 H       1  LIG1        0.2773
@<TRIPOS>BOND
     1     1     2   ar
     2     1     3   ar
     3     2     5   ar
     4     3     6   ar
     5     4     7   ar
     6     4     8   ar
     7     5    13   ar
     8     6    13   ar
     9     7    14   ar
    10     8    16   ar
    11     9    14   ar
    12     9    16   ar
    13    10    15   ar
    14    10    17   ar
    15    11    21   ar
    16    11    22   ar
    17    12    15   ar
    18    12    18   ar
    19    12    19   ar
    20    13    17    1
    21    14    15    1
    22    16    25    1
    23    17    23   ar
    24    18    21   ar
    25    18    23   ar
    26    19    22   ar
    27    19    24    1
    28    20    25    1
    29     1    26    1
    30     2    27    1
    31     3    28    1
    32     4    29    1
    33     5    30    1
    34     6    31    1
    35     7    32    1
    36     8    33    1
    37     9    34    1
    38    10    35    1
    39    11    36    1
    40    20    37    1
    41    20    38    1
    42    20    39    1
    43    24    40    1
    44    24    41    1
