@<TRIPOS>MOLECULE
AG-690/12404942
 38 41 0 0 0
SMALL
USER_CHARGES

@<TRIPOS>ATOM
      1 C           4.6146   -1.3449    2.1983 C.ar    1  LIG1       -0.0702
      2 C           5.8505   -2.1637    0.2905 C.ar    1  LIG1       -0.0769
      3 C           0.9222    3.4842    0.2050 C.ar    1  LIG1       -0.0785
      4 C           0.2732    1.2119   -0.2969 C.ar    1  LIG1       -0.0775
      5 C           5.1898   -2.3344    2.9956 C.ar    1  LIG1       -0.0912
      6 C           6.4259   -3.1531    1.0879 C.ar    1  LIG1       -0.0953
      7 C          -0.4200    3.8631    0.2257 C.ar    1  LIG1       -0.0751
      8 C          -1.0691    1.5906   -0.2761 C.ar    1  LIG1       -0.0752
      9 C           3.9021    2.6827   -3.2163 C.ar    1  LIG1        0.0578
     10 C           4.9450   -1.2597    0.8457 C.ar    1  LIG1       -0.0258
     11 C           1.2689    2.1586   -0.0563 C.ar    1  LIG1       -0.0592
     12 C           6.0955   -3.2384    2.4405 C.ar    1  LIG1       -0.1120
     13 C          -1.4157    2.9163   -0.0148 C.ar    1  LIG1       -0.0369
     14 C           4.4275    1.1968   -1.8123 C.ar    1  LIG1        0.1025
     15 C           4.3310   -0.2020   -0.0075 C.2     1  LIG1        0.0146
     16 C           2.9282    0.2897    0.3508 C.3     1  LIG1        0.0522
     17 C           2.7256    1.7475   -0.0788 C.3     1  LIG1        0.0501
     18 C           6.7112   -4.2955    3.2937 C.3     1  LIG1       -0.0394
     19 N           4.7773    1.6560   -3.0002 N.ar    1  LIG1       -0.3139
     20 N           3.0222    2.9078   -2.2404 N.ar    1  LIG1       -0.3057
     21 N           4.9901    0.2279   -1.0455 N.2     1  LIG1       -0.2965
     22 N           3.3484    1.9297   -1.3834 N.ar    1  LIG1       -0.2683
     23 BR         -3.2340    3.4305    0.0128 Br      1  LIG1       -0.1060
     24 H           3.9101   -0.6453    2.6406 H       1  LIG1        0.1479
     25 H           6.1153   -2.1067   -0.7620 H       1  LIG1        0.1345
     26 H           1.6912    4.2287    0.3937 H       1  LIG1        0.1289
     27 H           0.5339    0.1769   -0.5022 H       1  LIG1        0.1365
     28 H           4.9270   -2.3933    4.0484 H       1  LIG1        0.1230
     29 H           7.1309   -3.8530    0.6472 H       1  LIG1        0.1224
     30 H          -0.6730    4.9004    0.4299 H       1  LIG1        0.1373
     31 H          -1.8327    0.8407   -0.4653 H       1  LIG1        0.1387
     32 H           3.9090    3.2847   -4.1128 H       1  LIG1        0.2911
     33 H           2.1701   -0.3704   -0.0692 H       1  LIG1        0.1111
     34 H           2.8637    0.2313    1.4406 H       1  LIG1        0.1212
     35 H           3.2784    2.4122    0.6415 H       1  LIG1        0.1602
     36 H           6.0938   -5.2020    3.2835 H       1  LIG1        0.0607
     37 H           7.7176   -4.5559    2.9414 H       1  LIG1        0.0565
     38 H           6.8160   -3.9575    4.3329 H       1  LIG1        0.0562
@<TRIPOS>BOND
     1     1     5   ar
     2     1    10   ar
     3     2     6   ar
     4     2    10   ar
     5     3     7   ar
     6     3    11   ar
     7     4     8   ar
     8     4    11   ar
     9     5    12   ar
    10     6    12   ar
    11     7    13   ar
    12     8    13   ar
    13     9    19   ar
    14     9    20   ar
    15    10    15    1
    16    11    17    1
    17    12    18    1
    18    13    23    1
    19    14    19   ar
    20    14    21    1
    21    14    22   ar
    22    15    16    1
    23    15    21    2
    24    16    17    1
    25    17    22    1
    26    20    22   ar
    27     1    24    1
    28     2    25    1
    29     3    26    1
    30     4    27    1
    31     5    28    1
    32     6    29    1
    33     7    30    1
    34     8    31    1
    35     9    32    1
    36    16    33    1
    37    16    34    1
    38    17    35    1
    39    18    36    1
    40    18    37    1
    41    18    38    1
