ZINC03852046
 OpenBabel11241310543D

 38 41  0  0  0  0  0  0  0  0999 V2000
   -0.0126    1.0758    0.0080 C   0  0  0  0  0  0  0  0  0  0  0  0
   -1.2161    1.7506    0.0173 C   0  0  0  0  0  0  0  0  0  0  0  0
   -1.2362    3.1349    0.0297 C   0  0  0  0  0  0  0  0  0  0  0  0
   -0.0504    3.8493    0.0222 C   0  0  0  0  0  0  0  0  0  0  0  0
    1.1585    3.1842    0.0076 C   0  0  0  0  0  0  0  0  0  0  0  0
    1.1844    1.7904    0.0004 C   0  0  0  0  0  0  0  0  0  0  0  0
    2.4805    1.0705   -0.0149 C   0  0  0  0  0  0  0  0  0  0  0  0
    2.8625    0.0638    0.8142 C   0  0  0  0  0  0  0  0  0  0  0  0
    4.1263   -0.3416    0.4824 N   0  0  0  0  0  0  0  0  0  0  0  0
    4.6025    0.3983   -0.5654 C   0  0  0  0  0  0  0  0  0  0  0  0
    3.6051    1.3075   -0.9222 C   0  0  0  0  0  0  0  0  0  0  0  0
    3.8622    2.2302   -2.0301 C   0  0  0  0  0  0  0  0  0  0  0  0
    2.9640    3.1073   -2.4125 N   0  0  0  0  0  0  0  0  0  0  0  0
    5.0927    2.1372   -2.6567 N   0  0  0  0  0  0  0  0  0  0  0  0
    5.9950    1.2139   -2.2294 C   0  0  0  0  0  0  0  0  0  0  0  0
    5.7630    0.3977   -1.2460 N   0  0  0  0  0  0  0  0  0  0  0  0
    5.3989    2.9677   -3.6971 N   0  0  0  0  0  0  0  0  0  0  0  0
    4.8343   -1.3646    1.1273 C   0  0  0  0  0  0  0  0  0  0  0  0
    5.4323   -2.3727    0.3830 C   0  0  0  0  0  0  0  0  0  0  0  0
    6.1335   -3.3771    1.0207 C   0  0  0  0  0  0  0  0  0  0  0  0
    6.2312   -3.3854    2.4011 C   0  0  0  0  0  0  0  0  0  0  0  0
    5.6321   -2.3844    3.1455 C   0  0  0  0  0  0  0  0  0  0  0  0
    4.9342   -1.3749    2.5122 C   0  0  0  0  0  0  0  0  0  0  0  0
    7.1073   -4.6533    3.2002 Cl  0  0  0  0  0  0  0  0  0  0  0  0
   -2.7537    3.9778    0.0481 Cl  0  0  0  0  0  0  0  0  0  0  0  0
    0.0021   -0.0041    0.0020 H   0  0  0  0  0  0  0  0  0  0  0  0
   -2.1440    1.1980    0.0191 H   0  0  0  0  0  0  0  0  0  0  0  0
   -0.0715    4.9291    0.0275 H   0  0  0  0  0  0  0  0  0  0  0  0
    2.0830    3.7424    0.0014 H   0  0  0  0  0  0  0  0  0  0  0  0
    2.2616   -0.3525    1.6091 H   0  0  0  0  0  0  0  0  0  0  0  0
    3.1561    3.7086   -3.1490 H   0  0  0  0  0  0  0  0  0  0  0  0
    6.9497    1.1568   -2.7311 H   0  0  0  0  0  0  0  0  0  0  0  0
    5.8358    3.8151   -3.3668 H   0  0  0  0  0  0  0  0  0  0  0  0
    5.9831    2.4996   -4.3735 H   0  0  0  0  0  0  0  0  0  0  0  0
    5.3525   -2.3691   -0.6941 H   0  0  0  0  0  0  0  0  0  0  0  0
    6.6026   -4.1590    0.4419 H   0  0  0  0  0  0  0  0  0  0  0  0
    5.7101   -2.3929    4.2227 H   0  0  0  0  0  0  0  0  0  0  0  0
    4.4662   -0.5943    3.0936 H   0  0  0  0  0  0  0  0  0  0  0  0
  1  6  2  0  0  0  0
  1  2  1  0  0  0  0
  1 26  1  0  0  0  0
  2  3  2  0  0  0  0
  2 27  1  0  0  0  0
  3  4  1  0  0  0  0
  3 25  1  0  0  0  0
  4  5  2  0  0  0  0
  4 28  1  0  0  0  0
  5  6  1  0  0  0  0
  5 29  1  0  0  0  0
  6  7  1  0  0  0  0
  7 11  1  0  0  0  0
  7  8  2  0  0  0  0
  8  9  1  0  0  0  0
  8 30  1  0  0  0  0
  9 10  1  0  0  0  0
  9 18  1  0  0  0  0
 10 16  1  0  0  0  0
 10 11  2  0  0  0  0
 11 12  1  0  0  0  0
 12 13  2  0  0  0  0
 12 14  1  0  0  0  0
 13 31  1  0  0  0  0
 14 15  1  0  0  0  0
 14 17  1  0  0  0  0
 15 16  2  0  0  0  0
 15 32  1  0  0  0  0
 17 33  1  0  0  0  0
 17 34  1  0  0  0  0
 18 23  2  0  0  0  0
 18 19  1  0  0  0  0
 19 20  2  0  0  0  0
 19 35  1  0  0  0  0
 20 21  1  0  0  0  0
 20 36  1  0  0  0  0
 21 22  2  0  0  0  0
 21 24  1  0  0  0  0
 22 23  1  0  0  0  0
 22 37  1  0  0  0  0
 23 38  1  0  0  0  0
M  END
$$$$
DB01809
 OpenBabel11241310543D

 40 42  0  0  0  0  0  0  0  0999 V2000
    0.1663    1.2884   -0.7596 C   0  0  0  0  0  0  0  0  0  0  0  0
    1.0781    2.9017    0.7904 C   0  0  0  0  0  0  0  0  0  0  0  0
   -1.0618    1.9489   -0.7247 C   0  0  0  0  0  0  0  0  0  0  0  0
   -0.1500    3.5623    0.8254 C   0  0  0  0  0  0  0  0  0  0  0  0
    5.9530    1.1002   -2.0877 C   0  0  0  0  0  0  0  0  0  0  0  0
    3.5796    1.3185   -0.9167 C   0  0  0  0  0  0  0  0  0  0  0  0
    1.2362    1.7648   -0.0020 C   0  0  0  0  0  0  0  0  0  0  0  0
   -1.2199    3.0858    0.0679 C   0  0  0  0  0  0  0  0  0  0  0  0
    2.5051    1.0825   -0.0391 C   0  0  0  0  0  0  0  0  0  0  0  0
    4.5415    0.4011   -0.5315 C   0  0  0  0  0  0  0  0  0  0  0  0
    3.8975    2.1601   -1.9774 C   0  0  0  0  0  0  0  0  0  0  0  0
   -2.5329    3.7920    0.1035 C   0  0  0  0  0  0  0  0  0  0  0  0
    6.0617   -1.6625    0.7178 C   0  0  0  0  0  0  0  0  0  0  0  0
    3.7929   -2.6810    1.1590 C   0  0  0  0  0  0  0  0  0  0  0  0
    4.8058   -1.1021    2.7870 C   0  0  0  0  0  0  0  0  0  0  0  0
    4.6454   -1.3978    1.2751 C   0  0  0  0  0  0  0  0  0  0  0  0
    5.7584    0.2313   -1.0722 N   0  0  0  0  0  0  0  0  0  0  0  0
    5.1098    2.0438   -2.5703 N   0  0  0  0  0  0  0  0  0  0  0  0
    2.7566    0.0996    0.8326 N   0  0  0  0  0  0  0  0  0  0  0  0
    4.0019   -0.2954    0.5086 N   0  0  0  0  0  0  0  0  0  0  0  0
    2.9856    3.1246   -2.4431 N   0  0  0  0  0  0  0  0  0  0  0  0
    0.2729    0.4030   -1.3820 H   0  0  0  0  0  0  0  0  0  0  0  0
    1.9027    3.2856    1.3867 H   0  0  0  0  0  0  0  0  0  0  0  0
   -1.8901    1.5715   -1.3185 H   0  0  0  0  0  0  0  0  0  0  0  0
   -0.2650    4.4475    1.4453 H   0  0  0  0  0  0  0  0  0  0  0  0
    6.9142    1.0322   -2.5861 H   0  0  0  0  0  0  0  0  0  0  0  0
   -3.1655    3.3824    0.9006 H   0  0  0  0  0  0  0  0  0  0  0  0
   -2.4025    4.8673    0.2808 H   0  0  0  0  0  0  0  0  0  0  0  0
   -3.0663    3.6901   -0.8508 H   0  0  0  0  0  0  0  0  0  0  0  0
    6.6883   -0.7659    0.7885 H   0  0  0  0  0  0  0  0  0  0  0  0
    6.5804   -2.4582    1.2632 H   0  0  0  0  0  0  0  0  0  0  0  0
    6.0194   -1.9598   -0.3365 H   0  0  0  0  0  0  0  0  0  0  0  0
    2.7770   -2.5407    1.5433 H   0  0  0  0  0  0  0  0  0  0  0  0
    3.6978   -2.9995    0.1145 H   0  0  0  0  0  0  0  0  0  0  0  0
    4.2465   -3.5058    1.7211 H   0  0  0  0  0  0  0  0  0  0  0  0
    3.8339   -0.9028    3.2546 H   0  0  0  0  0  0  0  0  0  0  0  0
    5.2487   -1.9514    3.3201 H   0  0  0  0  0  0  0  0  0  0  0  0
    5.4321   -0.2196    2.9616 H   0  0  0  0  0  0  0  0  0  0  0  0
    2.0725    3.1760   -2.0342 H   0  0  0  0  0  0  0  0  0  0  0  0
    3.2256    3.6839   -3.2390 H   0  0  0  0  0  0  0  0  0  0  0  0
  1  3  2  0  0  0  0
  1  7  1  0  0  0  0
  1 22  1  0  0  0  0
  2  4  1  0  0  0  0
  2  7  2  0  0  0  0
  2 23  1  0  0  0  0
  3  8  1  0  0  0  0
  3 24  1  0  0  0  0
  4  8  2  0  0  0  0
  4 25  1  0  0  0  0
  5 17  2  0  0  0  0
  5 18  1  0  0  0  0
  5 26  1  0  0  0  0
  6  9  1  0  0  0  0
  6 10  2  0  0  0  0
  6 11  1  0  0  0  0
  7  9  1  0  0  0  0
  8 12  1  0  0  0  0
  9 19  2  0  0  0  0
 10 17  1  0  0  0  0
 10 20  1  0  0  0  0
 11 18  2  0  0  0  0
 11 21  1  0  0  0  0
 12 27  1  0  0  0  0
 12 28  1  0  0  0  0
 12 29  1  0  0  0  0
 13 16  1  0  0  0  0
 13 30  1  0  0  0  0
 13 31  1  0  0  0  0
 13 32  1  0  0  0  0
 14 16  1  0  0  0  0
 14 33  1  0  0  0  0
 14 34  1  0  0  0  0
 14 35  1  0  0  0  0
 15 16  1  0  0  0  0
 15 36  1  0  0  0  0
 15 37  1  0  0  0  0
 15 38  1  0  0  0  0
 16 20  1  0  0  0  0
 19 20  1  0  0  0  0
 21 39  1  0  0  0  0
 21 40  1  0  0  0  0
M  END
>  <name>
1-Ter-Butyl-3-P-Tolyl-1h-Pyrazolo[3,4-D]Pyrimidin-4-Ylamine

>  <score>
1.615

>  <target>
Tyrosine-protein kinase HCK

$$$$
DB03023
 OpenBabel11241310543D

 38 40  0  0  0  0  0  0  0  0999 V2000
    0.1137    1.3282   -0.7711 C   0  0  0  0  0  0  0  0  0  0  0  0
    1.0263    2.9379    0.7824 C   0  0  0  0  0  0  0  0  0  0  0  0
   -1.1073    2.0022   -0.7522 C   0  0  0  0  0  0  0  0  0  0  0  0
   -0.1948    3.6119    0.8013 C   0  0  0  0  0  0  0  0  0  0  0  0
    5.9591    1.0815   -2.0697 C   0  0  0  0  0  0  0  0  0  0  0  0
    3.5730    1.2985   -0.8931 C   0  0  0  0  0  0  0  0  0  0  0  0
    1.1805    1.7960   -0.0038 C   0  0  0  0  0  0  0  0  0  0  0  0
   -1.2616    3.1441    0.0339 C   0  0  0  0  0  0  0  0  0  0  0  0
    2.4382    1.1021   -0.0234 C   0  0  0  0  0  0  0  0  0  0  0  0
    4.5622    0.3643   -0.5058 C   0  0  0  0  0  0  0  0  0  0  0  0
    3.8993    2.1381   -1.9549 C   0  0  0  0  0  0  0  0  0  0  0  0
    6.1149   -1.6564    0.6695 C   0  0  0  0  0  0  0  0  0  0  0  0
    3.8771   -2.7255    1.1478 C   0  0  0  0  0  0  0  0  0  0  0  0
    4.8966   -1.1495    2.7745 C   0  0  0  0  0  0  0  0  0  0  0  0
    4.7070   -1.4274    1.2627 C   0  0  0  0  0  0  0  0  0  0  0  0
    5.7762    0.2082   -1.0570 N   0  0  0  0  0  0  0  0  0  0  0  0
    5.1112    2.0231   -2.5476 N   0  0  0  0  0  0  0  0  0  0  0  0
    4.0456   -0.3611    0.5494 N   0  0  0  0  0  0  0  0  0  0  0  0
    2.7021    0.0869    0.8740 N   0  0  0  0  0  0  0  0  0  0  0  0
    2.9902    3.1036   -2.4241 N   0  0  0  0  0  0  0  0  0  0  0  0
   -2.7681    3.9756    0.0588 Cl  0  0  0  0  0  0  0  0  0  0  0  0
    0.2172    0.4395   -1.3896 H   0  0  0  0  0  0  0  0  0  0  0  0
    1.8485    3.3149    1.3861 H   0  0  0  0  0  0  0  0  0  0  0  0
   -1.9300    1.6263   -1.3551 H   0  0  0  0  0  0  0  0  0  0  0  0
   -0.3007    4.4995    1.4195 H   0  0  0  0  0  0  0  0  0  0  0  0
    6.9196    1.0224   -2.5710 H   0  0  0  0  0  0  0  0  0  0  0  0
    6.7255   -0.7486    0.7387 H   0  0  0  0  0  0  0  0  0  0  0  0
    6.6613   -2.4491    1.1915 H   0  0  0  0  0  0  0  0  0  0  0  0
    6.0541   -1.9399   -0.3877 H   0  0  0  0  0  0  0  0  0  0  0  0
    2.8678   -2.6106    1.5570 H   0  0  0  0  0  0  0  0  0  0  0  0
    3.7642   -3.0314    0.1013 H   0  0  0  0  0  0  0  0  0  0  0  0
    4.3594   -3.5488    1.6875 H   0  0  0  0  0  0  0  0  0  0  0  0
    3.9321   -0.9759    3.2669 H   0  0  0  0  0  0  0  0  0  0  0  0
    5.3680   -1.9972    3.2852 H   0  0  0  0  0  0  0  0  0  0  0  0
    5.5095   -0.2573    2.9474 H   0  0  0  0  0  0  0  0  0  0  0  0
    2.1647   -0.3331    1.6258 H   0  0  0  0  0  0  0  0  0  0  0  0
    2.0760    3.1564   -2.0178 H   0  0  0  0  0  0  0  0  0  0  0  0
    3.2334    3.6619   -3.2196 H   0  0  0  0  0  0  0  0  0  0  0  0
  1  3  2  0  0  0  0
  1  7  1  0  0  0  0
  1 22  1  0  0  0  0
  2  4  1  0  0  0  0
  2  7  2  0  0  0  0
  2 23  1  0  0  0  0
  3  8  1  0  0  0  0
  3 24  1  0  0  0  0
  4  8  2  0  0  0  0
  4 25  1  0  0  0  0
  5 16  2  0  0  0  0
  5 17  1  0  0  0  0
  5 26  1  0  0  0  0
  6  9  1  0  0  0  0
  6 10  2  0  0  0  0
  6 11  1  0  0  0  0
  7  9  1  0  0  0  0
  8 21  1  0  0  0  0
  9 19  2  0  0  0  0
 10 16  1  0  0  0  0
 10 18  1  0  0  0  0
 11 17  2  0  0  0  0
 11 20  1  0  0  0  0
 12 15  1  0  0  0  0
 12 27  1  0  0  0  0
 12 28  1  0  0  0  0
 12 29  1  0  0  0  0
 13 15  1  0  0  0  0
 13 30  1  0  0  0  0
 13 31  1  0  0  0  0
 13 32  1  0  0  0  0
 14 15  1  0  0  0  0
 14 33  1  0  0  0  0
 14 34  1  0  0  0  0
 14 35  1  0  0  0  0
 15 18  1  0  0  0  0
 18 19  1  0  0  0  0
 19 36  1  0  0  0  0
 20 37  1  0  0  0  0
 20 38  1  0  0  0  0
M  END
>  <name>
1-Tert-Butyl-3-(4-Chloro-Phenyl)-1h-Pyrazolo[3,4-D]Pyrimidin-4-Ylamine

>  <score>
1.572

>  <target>
Proto-oncogene tyrosine-protein kinase LCK
Tyrosine-protein kinase Lyn

$$$$
DB08053
 OpenBabel11241310543D

 43 46  0  0  0  0  0  0  0  0999 V2000
   -0.0581    1.3135   -0.1356 C   0  0  0  0  0  0  0  0  0  0  0  0
   -1.2424    2.0497   -0.1000 C   0  0  0  0  0  0  0  0  0  0  0  0
    1.2111    3.3380    0.2223 C   0  0  0  0  0  0  0  0  0  0  0  0
    5.8080    0.9549   -2.0973 C   0  0  0  0  0  0  0  0  0  0  0  0
    3.4678    1.3463   -0.9048 C   0  0  0  0  0  0  0  0  0  0  0  0
    1.1687    1.9577    0.0257 C   0  0  0  0  0  0  0  0  0  0  0  0
   -1.1999    3.4299    0.0968 C   0  0  0  0  0  0  0  0  0  0  0  0
    0.0268    4.0741    0.2579 C   0  0  0  0  0  0  0  0  0  0  0  0
    2.3919    1.1969   -0.0100 C   0  0  0  0  0  0  0  0  0  0  0  0
    4.3756    0.3793   -0.5099 C   0  0  0  0  0  0  0  0  0  0  0  0
    3.8237    2.1432   -1.9878 C   0  0  0  0  0  0  0  0  0  0  0  0
    6.2204   -2.5045    1.2579 C   0  0  0  0  0  0  0  0  0  0  0  0
    4.9853   -2.4451    0.3348 C   0  0  0  0  0  0  0  0  0  0  0  0
    5.8942   -1.0511    1.6602 C   0  0  0  0  0  0  0  0  0  0  0  0
    4.4314   -1.3536    1.2742 C   0  0  0  0  0  0  0  0  0  0  0  0
   -2.9898    4.2992    1.3991 C   0  0  0  0  0  0  0  0  0  0  0  0
    0.1784    6.2395   -0.7135 C   0  0  0  0  0  0  0  0  0  0  0  0
    5.5728    0.1222   -1.0603 N   0  0  0  0  0  0  0  0  0  0  0  0
    5.0190    1.9386   -2.5915 N   0  0  0  0  0  0  0  0  0  0  0  0
    2.5930    0.2194    0.8807 N   0  0  0  0  0  0  0  0  0  0  0  0
    3.8071   -0.2595    0.5517 N   0  0  0  0  0  0  0  0  0  0  0  0
    2.9689    3.1536   -2.4635 N   0  0  0  0  0  0  0  0  0  0  0  0
   -2.3633    4.1378    0.1280 O   0  0  0  0  0  0  0  0  0  0  0  0
    0.0807    5.4216    0.4508 O   0  0  0  0  0  0  0  0  0  0  0  0
   -0.1077    0.2381   -0.2891 H   0  0  0  0  0  0  0  0  0  0  0  0
   -2.1949    1.5414   -0.2254 H   0  0  0  0  0  0  0  0  0  0  0  0
    2.1630    3.8495    0.3496 H   0  0  0  0  0  0  0  0  0  0  0  0
    6.7572    0.8182   -2.6043 H   0  0  0  0  0  0  0  0  0  0  0  0
    6.1368   -3.2285    2.0767 H   0  0  0  0  0  0  0  0  0  0  0  0
    7.1799   -2.6525    0.7555 H   0  0  0  0  0  0  0  0  0  0  0  0
    5.2071   -2.0818   -0.6759 H   0  0  0  0  0  0  0  0  0  0  0  0
    4.4094   -3.3712    0.2547 H   0  0  0  0  0  0  0  0  0  0  0  0
    6.0894   -0.7939    2.7050 H   0  0  0  0  0  0  0  0  0  0  0  0
    6.3697   -0.2987    1.0195 H   0  0  0  0  0  0  0  0  0  0  0  0
    3.7947   -1.7119    2.0877 H   0  0  0  0  0  0  0  0  0  0  0  0
   -3.9069    4.8820    1.2827 H   0  0  0  0  0  0  0  0  0  0  0  0
   -2.3054    4.8095    2.0815 H   0  0  0  0  0  0  0  0  0  0  0  0
   -3.2357    3.3139    1.8020 H   0  0  0  0  0  0  0  0  0  0  0  0
    0.2131    7.2913   -0.4189 H   0  0  0  0  0  0  0  0  0  0  0  0
   -0.6843    6.0595   -1.3599 H   0  0  0  0  0  0  0  0  0  0  0  0
    1.0941    5.9838   -1.2517 H   0  0  0  0  0  0  0  0  0  0  0  0
    2.0665    3.2719   -2.0446 H   0  0  0  0  0  0  0  0  0  0  0  0
    3.2329    3.6793   -3.2746 H   0  0  0  0  0  0  0  0  0  0  0  0
  1  2  2  0  0  0  0
  1  6  1  0  0  0  0
  1 25  1  0  0  0  0
  2  7  1  0  0  0  0
  2 26  1  0  0  0  0
  3  6  2  0  0  0  0
  3  8  1  0  0  0  0
  3 27  1  0  0  0  0
  4 18  2  0  0  0  0
  4 19  1  0  0  0  0
  4 28  1  0  0  0  0
  5  9  1  0  0  0  0
  5 10  2  0  0  0  0
  5 11  1  0  0  0  0
  6  9  1  0  0  0  0
  7  8  2  0  0  0  0
  7 23  1  0  0  0  0
  8 24  1  0  0  0  0
  9 20  2  0  0  0  0
 10 18  1  0  0  0  0
 10 21  1  0  0  0  0
 11 19  2  0  0  0  0
 11 22  1  0  0  0  0
 12 13  1  0  0  0  0
 12 14  1  0  0  0  0
 12 29  1  0  0  0  0
 12 30  1  0  0  0  0
 13 15  1  0  0  0  0
 13 31  1  0  0  0  0
 13 32  1  0  0  0  0
 14 15  1  0  0  0  0
 14 33  1  0  0  0  0
 14 34  1  0  0  0  0
 15 21  1  0  0  0  0
 15 35  1  0  0  0  0
 16 23  1  0  0  0  0
 16 36  1  0  0  0  0
 16 37  1  0  0  0  0
 16 38  1  0  0  0  0
 17 24  1  0  0  0  0
 17 39  1  0  0  0  0
 17 40  1  0  0  0  0
 17 41  1  0  0  0  0
 20 21  1  0  0  0  0
 22 42  1  0  0  0  0
 22 43  1  0  0  0  0
M  END
>  <name>
1-cyclobutyl-3-(3,4-dimethoxyphenyl)-1H-pyrazolo[3,4-d]pyrimidin-4-amine

>  <score>
1.533

>  <target>


$$$$
DB07335
 OpenBabel11241310543D

 35 37  0  0  0  0  0  0  0  0999 V2000
   -1.1741    1.7099   -0.1576 C   0  0  0  0  0  0  0  0  0  0  0  0
    0.0540    1.0495   -0.1927 C   0  0  0  0  0  0  0  0  0  0  0  0
   -1.2200    3.0857    0.0679 C   0  0  0  0  0  0  0  0  0  0  0  0
    1.1903    3.1407    0.2236 C   0  0  0  0  0  0  0  0  0  0  0  0
    5.9529    1.1000   -2.0877 C   0  0  0  0  0  0  0  0  0  0  0  0
    3.5797    1.3185   -0.9167 C   0  0  0  0  0  0  0  0  0  0  0  0
    1.2362    1.7650   -0.0020 C   0  0  0  0  0  0  0  0  0  0  0  0
   -0.0379    3.8011    0.2585 C   0  0  0  0  0  0  0  0  0  0  0  0
    2.5051    1.0825   -0.0391 C   0  0  0  0  0  0  0  0  0  0  0  0
    4.5415    0.4011   -0.5316 C   0  0  0  0  0  0  0  0  0  0  0  0
    3.8974    2.1601   -1.9775 C   0  0  0  0  0  0  0  0  0  0  0  0
    5.8761   -0.8906    1.9954 C   0  0  0  0  0  0  0  0  0  0  0  0
    4.9207   -2.5788    0.3695 C   0  0  0  0  0  0  0  0  0  0  0  0
    4.6257   -1.3643    1.2519 C   0  0  0  0  0  0  0  0  0  0  0  0
    5.7583    0.2312   -1.0723 N   0  0  0  0  0  0  0  0  0  0  0  0
    5.1098    2.0437   -2.5704 N   0  0  0  0  0  0  0  0  0  0  0  0
    2.7566    0.0997    0.8326 N   0  0  0  0  0  0  0  0  0  0  0  0
    4.0018   -0.2954    0.5087 N   0  0  0  0  0  0  0  0  0  0  0  0
    2.9856    3.1246   -2.4432 N   0  0  0  0  0  0  0  0  0  0  0  0
   -0.0836    5.1433    0.4802 O   0  0  0  0  0  0  0  0  0  0  0  0
   -2.0949    1.1531   -0.3059 H   0  0  0  0  0  0  0  0  0  0  0  0
    0.0727   -0.0234   -0.3698 H   0  0  0  0  0  0  0  0  0  0  0  0
   -2.1797    3.5950    0.0946 H   0  0  0  0  0  0  0  0  0  0  0  0
    2.1068    3.7079    0.3723 H   0  0  0  0  0  0  0  0  0  0  0  0
    6.9141    1.0320   -2.5863 H   0  0  0  0  0  0  0  0  0  0  0  0
    6.6574   -0.5519    1.3067 H   0  0  0  0  0  0  0  0  0  0  0  0
    6.2944   -1.7022    2.6002 H   0  0  0  0  0  0  0  0  0  0  0  0
    5.6390   -0.0576    2.6667 H   0  0  0  0  0  0  0  0  0  0  0  0
    5.6442   -2.3258   -0.4135 H   0  0  0  0  0  0  0  0  0  0  0  0
    4.0056   -2.9310   -0.1182 H   0  0  0  0  0  0  0  0  0  0  0  0
    5.3326   -3.4132    0.9470 H   0  0  0  0  0  0  0  0  0  0  0  0
    3.8992   -1.6836    2.0102 H   0  0  0  0  0  0  0  0  0  0  0  0
    2.0726    3.1760   -2.0343 H   0  0  0  0  0  0  0  0  0  0  0  0
    3.2256    3.6838   -3.2391 H   0  0  0  0  0  0  0  0  0  0  0  0
    0.8132    5.4963    0.5931 H   0  0  0  0  0  0  0  0  0  0  0  0
  1  2  2  0  0  0  0
  1  3  1  0  0  0  0
  1 21  1  0  0  0  0
  2  7  1  0  0  0  0
  2 22  1  0  0  0  0
  3  8  2  0  0  0  0
  3 23  1  0  0  0  0
  4  7  2  0  0  0  0
  4  8  1  0  0  0  0
  4 24  1  0  0  0  0
  5 15  2  0  0  0  0
  5 16  1  0  0  0  0
  5 25  1  0  0  0  0
  6  9  1  0  0  0  0
  6 10  2  0  0  0  0
  6 11  1  0  0  0  0
  7  9  1  0  0  0  0
  8 20  1  0  0  0  0
  9 17  2  0  0  0  0
 10 15  1  0  0  0  0
 10 18  1  0  0  0  0
 11 16  2  0  0  0  0
 11 19  1  0  0  0  0
 12 14  1  0  0  0  0
 12 26  1  0  0  0  0
 12 27  1  0  0  0  0
 12 28  1  0  0  0  0
 13 14  1  0  0  0  0
 13 29  1  0  0  0  0
 13 30  1  0  0  0  0
 13 31  1  0  0  0  0
 14 18  1  0  0  0  0
 14 32  1  0  0  0  0
 17 18  1  0  0  0  0
 19 33  1  0  0  0  0
 19 34  1  0  0  0  0
 20 35  1  0  0  0  0
M  END
>  <name>
3-[4-AMINO-1-(1-METHYLETHYL)-1H-PYRAZOLO[3,4-D]PYRIMIDIN-3-YL]PHENOL

>  <score>
1.521

>  <target>
Phosphatidylinositol-4,5-bisphosphate 3-kinase catalytic subunit gamma isoform

$$$$
DB04463
 OpenBabel11241310543D

 38 40  0  0  0  0  0  0  0  0999 V2000
   -0.1368    3.4224    0.9621 C   0  0  0  0  0  0  0  0  0  0  0  0
    1.1104    2.8047    0.8709 C   0  0  0  0  0  0  0  0  0  0  0  0
   -1.2165    2.9248    0.2324 C   0  0  0  0  0  0  0  0  0  0  0  0
    0.1984    1.1919   -0.6795 C   0  0  0  0  0  0  0  0  0  0  0  0
    5.9400    1.2230   -2.2057 C   0  0  0  0  0  0  0  0  0  0  0  0
    3.6022    1.3394   -0.9515 C   0  0  0  0  0  0  0  0  0  0  0  0
    1.2781    1.6895    0.0501 C   0  0  0  0  0  0  0  0  0  0  0  0
   -1.0489    1.8096   -0.5883 C   0  0  0  0  0  0  0  0  0  0  0  0
    2.5667    1.0509   -0.0432 C   0  0  0  0  0  0  0  0  0  0  0  0
    4.6064    0.4477   -0.6173 C   0  0  0  0  0  0  0  0  0  0  0  0
    3.8557    2.2111   -2.0053 C   0  0  0  0  0  0  0  0  0  0  0  0
    6.1317   -0.8352    1.7794 C   0  0  0  0  0  0  0  0  0  0  0  0
    5.1698   -2.5220    0.1640 C   0  0  0  0  0  0  0  0  0  0  0  0
    4.0048   -2.0103    2.2971 C   0  0  0  0  0  0  0  0  0  0  0  0
    4.8312   -1.3805    1.1485 C   0  0  0  0  0  0  0  0  0  0  0  0
    5.8090    0.3291   -1.2018 N   0  0  0  0  0  0  0  0  0  0  0  0
    5.0502    2.1467   -2.6407 N   0  0  0  0  0  0  0  0  0  0  0  0
    2.8801    0.0608    0.7997 N   0  0  0  0  0  0  0  0  0  0  0  0
    4.1259   -0.2861    0.4263 N   0  0  0  0  0  0  0  0  0  0  0  0
    2.8971    3.1531   -2.4207 N   0  0  0  0  0  0  0  0  0  0  0  0
   -2.1026    1.3256   -1.3012 O   0  0  0  0  0  0  0  0  0  0  0  0
   -0.2676    4.2911    1.6010 H   0  0  0  0  0  0  0  0  0  0  0  0
    1.9421    3.2049    1.4464 H   0  0  0  0  0  0  0  0  0  0  0  0
   -2.1860    3.4103    0.3069 H   0  0  0  0  0  0  0  0  0  0  0  0
    0.3185    0.3218   -1.3216 H   0  0  0  0  0  0  0  0  0  0  0  0
    6.8852    1.1967   -2.7374 H   0  0  0  0  0  0  0  0  0  0  0  0
    5.9190   -0.0224    2.4834 H   0  0  0  0  0  0  0  0  0  0  0  0
    6.6775   -1.6047    2.3356 H   0  0  0  0  0  0  0  0  0  0  0  0
    6.8072   -0.4439    1.0097 H   0  0  0  0  0  0  0  0  0  0  0  0
    4.2757   -2.9410   -0.3093 H   0  0  0  0  0  0  0  0  0  0  0  0
    5.8217   -2.1678   -0.6430 H   0  0  0  0  0  0  0  0  0  0  0  0
    5.6861   -3.3421    0.6764 H   0  0  0  0  0  0  0  0  0  0  0  0
    3.0598   -2.4219    1.9225 H   0  0  0  0  0  0  0  0  0  0  0  0
    4.5440   -2.8348    2.7779 H   0  0  0  0  0  0  0  0  0  0  0  0
    3.7500   -1.2700    3.0642 H   0  0  0  0  0  0  0  0  0  0  0  0
    1.9975    3.1661   -1.9803 H   0  0  0  0  0  0  0  0  0  0  0  0
    3.0912    3.7350   -3.2128 H   0  0  0  0  0  0  0  0  0  0  0  0
   -1.8304    0.5524   -1.8208 H   0  0  0  0  0  0  0  0  0  0  0  0
  1  2  2  0  0  0  0
  1  3  1  0  0  0  0
  1 22  1  0  0  0  0
  2  7  1  0  0  0  0
  2 23  1  0  0  0  0
  3  8  2  0  0  0  0
  3 24  1  0  0  0  0
  4  7  2  0  0  0  0
  4  8  1  0  0  0  0
  4 25  1  0  0  0  0
  5 16  2  0  0  0  0
  5 17  1  0  0  0  0
  5 26  1  0  0  0  0
  6  9  1  0  0  0  0
  6 10  2  0  0  0  0
  6 11  1  0  0  0  0
  7  9  1  0  0  0  0
  8 21  1  0  0  0  0
  9 18  2  0  0  0  0
 10 16  1  0  0  0  0
 10 19  1  0  0  0  0
 11 17  2  0  0  0  0
 11 20  1  0  0  0  0
 12 15  1  0  0  0  0
 12 27  1  0  0  0  0
 12 28  1  0  0  0  0
 12 29  1  0  0  0  0
 13 15  1  0  0  0  0
 13 30  1  0  0  0  0
 13 31  1  0  0  0  0
 13 32  1  0  0  0  0
 14 15  1  0  0  0  0
 14 33  1  0  0  0  0
 14 34  1  0  0  0  0
 14 35  1  0  0  0  0
 15 19  1  0  0  0  0
 18 19  1  0  0  0  0
 20 36  1  0  0  0  0
 20 37  1  0  0  0  0
 21 38  1  0  0  0  0
M  END
>  <name>
3-(4-Amino-1-Tert-Butyl-1h-Pyrazolo[3,4-D]Pyrimidin-3-Yl)Phenol

>  <score>
1.488

>  <target>


$$$$
DB08054
 OpenBabel11241310543D

 39 42  0  0  0  0  0  0  0  0999 V2000
   -1.3609    5.8140    0.5162 C   0  0  0  0  0  0  0  0  0  0  0  0
   -0.1256    5.1829    0.4855 C   0  0  0  0  0  0  0  0  0  0  0  0
    0.0620    1.0525   -0.1924 C   0  0  0  0  0  0  0  0  0  0  0  0
   -1.1661    1.7175   -0.1557 C   0  0  0  0  0  0  0  0  0  0  0  0
    1.1905    3.1334    0.2231 C   0  0  0  0  0  0  0  0  0  0  0  0
   -2.4814    5.0330    0.3182 C   0  0  0  0  0  0  0  0  0  0  0  0
    5.9544    1.1010   -2.0875 C   0  0  0  0  0  0  0  0  0  0  0  0
   -0.0449    3.8022    0.2600 C   0  0  0  0  0  0  0  0  0  0  0  0
    3.5808    1.3183   -0.9170 C   0  0  0  0  0  0  0  0  0  0  0  0
    1.2419    1.7609   -0.0028 C   0  0  0  0  0  0  0  0  0  0  0  0
   -1.2469    3.0892    0.0685 C   0  0  0  0  0  0  0  0  0  0  0  0
    2.5062    1.0817   -0.0396 C   0  0  0  0  0  0  0  0  0  0  0  0
    4.5429    0.4013   -0.5317 C   0  0  0  0  0  0  0  0  0  0  0  0
    3.8985    2.1601   -1.9775 C   0  0  0  0  0  0  0  0  0  0  0  0
    5.8777   -0.8903    1.9954 C   0  0  0  0  0  0  0  0  0  0  0  0
    4.9234   -2.5786    0.3690 C   0  0  0  0  0  0  0  0  0  0  0  0
    4.6276   -1.3644    1.2514 C   0  0  0  0  0  0  0  0  0  0  0  0
   -2.4470    3.6989    0.0977 N   0  0  0  0  0  0  0  0  0  0  0  0
    5.7600    0.2319   -1.0722 N   0  0  0  0  0  0  0  0  0  0  0  0
    5.1110    2.0443   -2.5702 N   0  0  0  0  0  0  0  0  0  0  0  0
    2.7579    0.0988    0.8319 N   0  0  0  0  0  0  0  0  0  0  0  0
    4.0034   -0.2956    0.5083 N   0  0  0  0  0  0  0  0  0  0  0  0
    2.9863    3.1243   -2.4433 N   0  0  0  0  0  0  0  0  0  0  0  0
   -1.4423    6.8807    0.6885 H   0  0  0  0  0  0  0  0  0  0  0  0
    0.7744    5.7744    0.6373 H   0  0  0  0  0  0  0  0  0  0  0  0
    0.0756   -0.0204   -0.3693 H   0  0  0  0  0  0  0  0  0  0  0  0
   -2.0767    1.1403   -0.3057 H   0  0  0  0  0  0  0  0  0  0  0  0
    2.1126    3.6937    0.3715 H   0  0  0  0  0  0  0  0  0  0  0  0
   -3.4739    5.4714    0.3314 H   0  0  0  0  0  0  0  0  0  0  0  0
    6.9157    1.0334   -2.5858 H   0  0  0  0  0  0  0  0  0  0  0  0
    6.6590   -0.5512    1.3068 H   0  0  0  0  0  0  0  0  0  0  0  0
    6.2962   -1.7018    2.6001 H   0  0  0  0  0  0  0  0  0  0  0  0
    5.6401   -0.0575    2.6666 H   0  0  0  0  0  0  0  0  0  0  0  0
    5.6468   -2.3253   -0.4138 H   0  0  0  0  0  0  0  0  0  0  0  0
    4.0084   -2.9312   -0.1190 H   0  0  0  0  0  0  0  0  0  0  0  0
    5.3354   -3.4130    0.9464 H   0  0  0  0  0  0  0  0  0  0  0  0
    3.9011   -1.6841    2.0097 H   0  0  0  0  0  0  0  0  0  0  0  0
    2.0732    3.1753   -2.0345 H   0  0  0  0  0  0  0  0  0  0  0  0
    3.2263    3.6838   -3.2391 H   0  0  0  0  0  0  0  0  0  0  0  0
  1  2  2  0  0  0  0
  1  6  1  0  0  0  0
  1 24  1  0  0  0  0
  2  8  1  0  0  0  0
  2 25  1  0  0  0  0
  3  4  2  0  0  0  0
  3 10  1  0  0  0  0
  3 26  1  0  0  0  0
  4 11  1  0  0  0  0
  4 27  1  0  0  0  0
  5  8  1  0  0  0  0
  5 10  2  0  0  0  0
  5 28  1  0  0  0  0
  6 18  2  0  0  0  0
  6 29  1  0  0  0  0
  7 19  2  0  0  0  0
  7 20  1  0  0  0  0
  7 30  1  0  0  0  0
  8 11  2  0  0  0  0
  9 12  1  0  0  0  0
  9 13  2  0  0  0  0
  9 14  1  0  0  0  0
 10 12  1  0  0  0  0
 11 18  1  0  0  0  0
 12 21  2  0  0  0  0
 13 19  1  0  0  0  0
 13 22  1  0  0  0  0
 14 20  2  0  0  0  0
 14 23  1  0  0  0  0
 15 17  1  0  0  0  0
 15 31  1  0  0  0  0
 15 32  1  0  0  0  0
 15 33  1  0  0  0  0
 16 17  1  0  0  0  0
 16 34  1  0  0  0  0
 16 35  1  0  0  0  0
 16 36  1  0  0  0  0
 17 22  1  0  0  0  0
 17 37  1  0  0  0  0
 21 22  1  0  0  0  0
 23 38  1  0  0  0  0
 23 39  1  0  0  0  0
M  END
>  <name>
1-(1-methylethyl)-3-quinolin-6-yl-1H-pyrazolo[3,4-d]pyrimidin-4-amine

>  <score>
1.481

>  <target>


$$$$
DB08052
 OpenBabel11241310543D

 41 45  0  0  0  0  0  0  0  0999 V2000
   -0.6921    4.8718    1.1582 C   0  0  0  0  0  0  0  0  0  0  0  0
    1.0557    2.9719    0.7322 C   0  0  0  0  0  0  0  0  0  0  0  0
    0.1445    1.3760   -0.8021 C   0  0  0  0  0  0  0  0  0  0  0  0
   -1.9592    5.0315    0.6399 C   0  0  0  0  0  0  0  0  0  0  0  0
    5.9782    0.7190   -1.7195 C   0  0  0  0  0  0  0  0  0  0  0  0
   -0.1531    3.6765    0.6130 C   0  0  0  0  0  0  0  0  0  0  0  0
    3.5529    1.1510   -0.7280 C   0  0  0  0  0  0  0  0  0  0  0  0
    1.1968    1.7934    0.0016 C   0  0  0  0  0  0  0  0  0  0  0  0
    2.4073    1.0279    0.0801 C   0  0  0  0  0  0  0  0  0  0  0  0
   -1.1246    3.1436   -0.2292 C   0  0  0  0  0  0  0  0  0  0  0  0
    4.4181    0.1871   -0.2410 C   0  0  0  0  0  0  0  0  0  0  0  0
    4.0013    1.9220   -1.7952 C   0  0  0  0  0  0  0  0  0  0  0  0
    6.6354   -2.0047    1.7994 C   0  0  0  0  0  0  0  0  0  0  0  0
    5.8951   -3.2682    1.3959 C   0  0  0  0  0  0  0  0  0  0  0  0
    5.5405   -1.1062    2.3635 C   0  0  0  0  0  0  0  0  0  0  0  0
    4.6146   -2.7372    0.7685 C   0  0  0  0  0  0  0  0  0  0  0  0
    4.2547   -1.5012    1.6104 C   0  0  0  0  0  0  0  0  0  0  0  0
   -1.0398    2.0127   -0.9551 N   0  0  0  0  0  0  0  0  0  0  0  0
    5.6535   -0.0896   -0.6875 N   0  0  0  0  0  0  0  0  0  0  0  0
    5.2397    1.6968   -2.2962 N   0  0  0  0  0  0  0  0  0  0  0  0
    2.5281    0.0686    1.0044 N   0  0  0  0  0  0  0  0  0  0  0  0
   -2.2112    3.9776   -0.1998 N   0  0  0  0  0  0  0  0  0  0  0  0
    3.7608   -0.4250    0.7845 N   0  0  0  0  0  0  0  0  0  0  0  0
    3.1948    2.9261   -2.3608 N   0  0  0  0  0  0  0  0  0  0  0  0
   -0.2104    5.5451    1.8536 H   0  0  0  0  0  0  0  0  0  0  0  0
    1.8491    3.3402    1.3763 H   0  0  0  0  0  0  0  0  0  0  0  0
    0.2233    0.4606   -1.3853 H   0  0  0  0  0  0  0  0  0  0  0  0
   -2.7031    5.8002    0.7948 H   0  0  0  0  0  0  0  0  0  0  0  0
    6.9636    0.5634   -2.1458 H   0  0  0  0  0  0  0  0  0  0  0  0
    7.4280   -2.2003    2.5274 H   0  0  0  0  0  0  0  0  0  0  0  0
    7.0886   -1.5350    0.9184 H   0  0  0  0  0  0  0  0  0  0  0  0
    6.4719   -3.8853    0.7011 H   0  0  0  0  0  0  0  0  0  0  0  0
    5.6617   -3.8726    2.2805 H   0  0  0  0  0  0  0  0  0  0  0  0
    5.4113   -1.3246    3.4308 H   0  0  0  0  0  0  0  0  0  0  0  0
    5.7997   -0.0463    2.2714 H   0  0  0  0  0  0  0  0  0  0  0  0
    4.7968   -2.4679   -0.2797 H   0  0  0  0  0  0  0  0  0  0  0  0
    3.8157   -3.4854    0.7824 H   0  0  0  0  0  0  0  0  0  0  0  0
    3.4514   -1.7260    2.3199 H   0  0  0  0  0  0  0  0  0  0  0  0
   -3.0676    3.8370   -0.7175 H   0  0  0  0  0  0  0  0  0  0  0  0
    2.2622    3.0579   -2.0195 H   0  0  0  0  0  0  0  0  0  0  0  0
    3.5276    3.4324   -3.1586 H   0  0  0  0  0  0  0  0  0  0  0  0
  1  4  2  0  0  0  0
  1  6  1  0  0  0  0
  1 25  1  0  0  0  0
  2  6  2  0  0  0  0
  2  8  1  0  0  0  0
  2 26  1  0  0  0  0
  3  8  2  0  0  0  0
  3 18  1  0  0  0  0
  3 27  1  0  0  0  0
  4 22  1  0  0  0  0
  4 28  1  0  0  0  0
  5 19  2  0  0  0  0
  5 20  1  0  0  0  0
  5 29  1  0  0  0  0
  6 10  1  0  0  0  0
  7  9  1  0  0  0  0
  7 11  2  0  0  0  0
  7 12  1  0  0  0  0
  8  9  1  0  0  0  0
  9 21  2  0  0  0  0
 10 18  2  0  0  0  0
 10 22  1  0  0  0  0
 11 19  1  0  0  0  0
 11 23  1  0  0  0  0
 12 20  2  0  0  0  0
 12 24  1  0  0  0  0
 13 14  1  0  0  0  0
 13 15  1  0  0  0  0
 13 30  1  0  0  0  0
 13 31  1  0  0  0  0
 14 16  1  0  0  0  0
 14 32  1  0  0  0  0
 14 33  1  0  0  0  0
 15 17  1  0  0  0  0
 15 34  1  0  0  0  0
 15 35  1  0  0  0  0
 16 17  1  0  0  0  0
 16 36  1  0  0  0  0
 16 37  1  0  0  0  0
 17 23  1  0  0  0  0
 17 38  1  0  0  0  0
 21 23  1  0  0  0  0
 22 39  1  0  0  0  0
 24 40  1  0  0  0  0
 24 41  1  0  0  0  0
M  END
>  <name>
1-cyclopentyl-3-(1H-pyrrolo[2,3-b]pyridin-5-yl)-1H-pyrazolo[3,4-d]pyrimidin-4-amine

>  <score>
1.444

>  <target>


$$$$
DB08699
 OpenBabel11241310543D

 43 45  0  0  0  0  0  0  0  0999 V2000
   -0.8485    0.7647   -0.7075 C   0  0  0  0  0  0  0  0  0  0  0  0
   -1.8741    1.7049   -0.6096 C   0  0  0  0  0  0  0  0  0  0  0  0
    0.4366    1.0863   -0.2707 C   0  0  0  0  0  0  0  0  0  0  0  0
   -0.3295    3.2886    0.3616 C   0  0  0  0  0  0  0  0  0  0  0  0
    5.3576    0.5929   -2.7758 C   0  0  0  0  0  0  0  0  0  0  0  0
    3.7631    1.5526   -0.8814 C   0  0  0  0  0  0  0  0  0  0  0  0
   -1.6146    2.9669   -0.0752 C   0  0  0  0  0  0  0  0  0  0  0  0
    0.6961    2.3482    0.2638 C   0  0  0  0  0  0  0  0  0  0  0  0
    3.1353    1.7199    0.3669 C   0  0  0  0  0  0  0  0  0  0  0  0
    4.6417    0.5022   -0.6824 C   0  0  0  0  0  0  0  0  0  0  0  0
    3.7321    2.1190   -2.1513 C   0  0  0  0  0  0  0  0  0  0  0  0
   -2.7121    3.9712    0.0305 C   0  0  0  0  0  0  0  0  0  0  0  0
    6.7330   -0.6812    1.3029 C   0  0  0  0  0  0  0  0  0  0  0  0
    4.9309   -2.3169    0.6271 C   0  0  0  0  0  0  0  0  0  0  0  0
    4.8096   -1.1355    2.8086 C   0  0  0  0  0  0  0  0  0  0  0  0
    2.0992    2.6994    0.7398 C   0  0  0  0  0  0  0  0  0  0  0  0
    5.2149   -0.9672    1.3232 C   0  0  0  0  0  0  0  0  0  0  0  0
    5.4754   -0.0362   -1.5864 N   0  0  0  0  0  0  0  0  0  0  0  0
    4.5481    1.6249   -3.1132 N   0  0  0  0  0  0  0  0  0  0  0  0
    3.5735    0.8523    1.2858 N   0  0  0  0  0  0  0  0  0  0  0  0
    4.4886    0.1248    0.6185 N   0  0  0  0  0  0  0  0  0  0  0  0
    2.8729    3.1924   -2.4472 N   0  0  0  0  0  0  0  0  0  0  0  0
   -1.0507   -0.2181   -1.1236 H   0  0  0  0  0  0  0  0  0  0  0  0
   -2.8725    1.4452   -0.9520 H   0  0  0  0  0  0  0  0  0  0  0  0
    1.2298    0.3476   -0.3515 H   0  0  0  0  0  0  0  0  0  0  0  0
   -0.1268    4.2719    0.7793 H   0  0  0  0  0  0  0  0  0  0  0  0
    5.9975    0.2215   -3.5690 H   0  0  0  0  0  0  0  0  0  0  0  0
   -3.2233    3.8781    0.9964 H   0  0  0  0  0  0  0  0  0  0  0  0
   -2.3259    4.9947   -0.0616 H   0  0  0  0  0  0  0  0  0  0  0  0
   -3.4523    3.8381   -0.7693 H   0  0  0  0  0  0  0  0  0  0  0  0
    6.9621    0.2727    1.7916 H   0  0  0  0  0  0  0  0  0  0  0  0
    7.3078   -1.4535    1.8251 H   0  0  0  0  0  0  0  0  0  0  0  0
    7.1090   -0.6301    0.2744 H   0  0  0  0  0  0  0  0  0  0  0  0
    3.8637   -2.5625    0.6174 H   0  0  0  0  0  0  0  0  0  0  0  0
    5.2642   -2.3013   -0.4170 H   0  0  0  0  0  0  0  0  0  0  0  0
    5.4528   -3.1372    1.1335 H   0  0  0  0  0  0  0  0  0  0  0  0
    3.7367   -1.3425    2.9029 H   0  0  0  0  0  0  0  0  0  0  0  0
    5.3390   -1.9718    3.2796 H   0  0  0  0  0  0  0  0  0  0  0  0
    5.0127   -0.2274    3.3880 H   0  0  0  0  0  0  0  0  0  0  0  0
    2.3464    3.7137    0.3609 H   0  0  0  0  0  0  0  0  0  0  0  0
    2.0615    2.8490    1.8397 H   0  0  0  0  0  0  0  0  0  0  0  0
    2.2398    3.5237   -1.7448 H   0  0  0  0  0  0  0  0  0  0  0  0
    2.8370    3.5501   -3.3824 H   0  0  0  0  0  0  0  0  0  0  0  0
  1  2  2  0  0  0  0
  1  3  1  0  0  0  0
  1 23  1  0  0  0  0
  2  7  1  0  0  0  0
  2 24  1  0  0  0  0
  3  8  2  0  0  0  0
  3 25  1  0  0  0  0
  4  7  2  0  0  0  0
  4  8  1  0  0  0  0
  4 26  1  0  0  0  0
  5 18  2  0  0  0  0
  5 19  1  0  0  0  0
  5 27  1  0  0  0  0
  6  9  1  0  0  0  0
  6 10  2  0  0  0  0
  6 11  1  0  0  0  0
  7 12  1  0  0  0  0
  8 16  1  0  0  0  0
  9 16  1  0  0  0  0
  9 20  2  0  0  0  0
 10 18  1  0  0  0  0
 10 21  1  0  0  0  0
 11 19  2  0  0  0  0
 11 22  1  0  0  0  0
 12 28  1  0  0  0  0
 12 29  1  0  0  0  0
 12 30  1  0  0  0  0
 13 17  1  0  0  0  0
 13 31  1  0  0  0  0
 13 32  1  0  0  0  0
 13 33  1  0  0  0  0
 14 17  1  0  0  0  0
 14 34  1  0  0  0  0
 14 35  1  0  0  0  0
 14 36  1  0  0  0  0
 15 17  1  0  0  0  0
 15 37  1  0  0  0  0
 15 38  1  0  0  0  0
 15 39  1  0  0  0  0
 16 40  1  0  0  0  0
 16 41  1  0  0  0  0
 17 21  1  0  0  0  0
 20 21  1  0  0  0  0
 22 42  1  0  0  0  0
 22 43  1  0  0  0  0
M  END
>  <name>
1-tert-butyl-3-(3-methylbenzyl)-1H-pyrazolo[3,4-d]pyrimidin-4-amine

>  <score>
1.424

>  <target>


$$$$
DB08300
 OpenBabel11241310543D

 34 37  0  0  0  0  0  0  0  0999 V2000
   -3.5443    3.2740   -0.6583 C   0  0  0  0  0  0  0  0  0  0  0  0
   -3.3886    2.1400   -1.4499 C   0  0  0  0  0  0  0  0  0  0  0  0
   -2.4732    3.7500    0.0985 C   0  0  0  0  0  0  0  0  0  0  0  0
   -2.1614    1.4776   -1.4878 C   0  0  0  0  0  0  0  0  0  0  0  0
   -0.1419    3.5608    0.8279 C   0  0  0  0  0  0  0  0  0  0  0  0
    1.0854    2.8983    0.7901 C   0  0  0  0  0  0  0  0  0  0  0  0
    0.1699    1.2882   -0.7583 C   0  0  0  0  0  0  0  0  0  0  0  0
    5.9520    1.0983   -2.0887 C   0  0  0  0  0  0  0  0  0  0  0  0
   -1.2307    3.0957    0.0726 C   0  0  0  0  0  0  0  0  0  0  0  0
   -1.0725    1.9425   -0.7324 C   0  0  0  0  0  0  0  0  0  0  0  0
    3.5792    1.3186   -0.9168 C   0  0  0  0  0  0  0  0  0  0  0  0
    1.2409    1.7642   -0.0015 C   0  0  0  0  0  0  0  0  0  0  0  0
    2.5048    1.0834   -0.0387 C   0  0  0  0  0  0  0  0  0  0  0  0
    4.5406    0.4006   -0.5319 C   0  0  0  0  0  0  0  0  0  0  0  0
    3.8972    2.1598   -1.9779 C   0  0  0  0  0  0  0  0  0  0  0  0
    4.6245   -1.3646    1.2519 C   0  0  0  0  0  0  0  0  0  0  0  0
    5.7572    0.2298   -1.0730 N   0  0  0  0  0  0  0  0  0  0  0  0
    5.1093    2.0424   -2.5712 N   0  0  0  0  0  0  0  0  0  0  0  0
    2.7561    0.1005    0.8330 N   0  0  0  0  0  0  0  0  0  0  0  0
    4.0010   -0.2954    0.5087 N   0  0  0  0  0  0  0  0  0  0  0  0
    2.9858    3.1247   -2.4434 N   0  0  0  0  0  0  0  0  0  0  0  0
   -4.5001    3.7891   -0.6295 H   0  0  0  0  0  0  0  0  0  0  0  0
   -4.2228    1.7701   -2.0390 H   0  0  0  0  0  0  0  0  0  0  0  0
   -2.6177    4.6381    0.7101 H   0  0  0  0  0  0  0  0  0  0  0  0
   -2.0630    0.5930   -2.1135 H   0  0  0  0  0  0  0  0  0  0  0  0
   -0.2409    4.4456    1.4533 H   0  0  0  0  0  0  0  0  0  0  0  0
    1.9107    3.2813    1.3859 H   0  0  0  0  0  0  0  0  0  0  0  0
    0.2985    0.4001   -1.3762 H   0  0  0  0  0  0  0  0  0  0  0  0
    6.9129    1.0296   -2.5876 H   0  0  0  0  0  0  0  0  0  0  0  0
    5.1634   -0.9209    2.0932 H   0  0  0  0  0  0  0  0  0  0  0  0
    3.8560   -2.0546    1.6112 H   0  0  0  0  0  0  0  0  0  0  0  0
    5.3137   -1.9054    0.5974 H   0  0  0  0  0  0  0  0  0  0  0  0
    2.0729    3.1768   -2.0342 H   0  0  0  0  0  0  0  0  0  0  0  0
    3.2259    3.6836   -3.2395 H   0  0  0  0  0  0  0  0  0  0  0  0
  1  2  2  0  0  0  0
  1  3  1  0  0  0  0
  1 22  1  0  0  0  0
  2  4  1  0  0  0  0
  2 23  1  0  0  0  0
  3  9  2  0  0  0  0
  3 24  1  0  0  0  0
  4 10  2  0  0  0  0
  4 25  1  0  0  0  0
  5  6  2  0  0  0  0
  5  9  1  0  0  0  0
  5 26  1  0  0  0  0
  6 12  1  0  0  0  0
  6 27  1  0  0  0  0
  7 10  1  0  0  0  0
  7 12  2  0  0  0  0
  7 28  1  0  0  0  0
  8 17  2  0  0  0  0
  8 18  1  0  0  0  0
  8 29  1  0  0  0  0
  9 10  1  0  0  0  0
 11 13  1  0  0  0  0
 11 14  2  0  0  0  0
 11 15  1  0  0  0  0
 12 13  1  0  0  0  0
 13 19  2  0  0  0  0
 14 17  1  0  0  0  0
 14 20  1  0  0  0  0
 15 18  2  0  0  0  0
 15 21  1  0  0  0  0
 16 20  1  0  0  0  0
 16 30  1  0  0  0  0
 16 31  1  0  0  0  0
 16 32  1  0  0  0  0
 19 20  1  0  0  0  0
 21 33  1  0  0  0  0
 21 34  1  0  0  0  0
M  END
>  <name>
1-methyl-3-naphthalen-2-yl-1H-pyrazolo[3,4-d]pyrimidin-4-amine

>  <score>
1.419

>  <target>


$$$$
DB08470
 OpenBabel11241310543D

 28 30  0  0  0  0  0  0  0  0999 V2000
   -1.1657    3.0581    0.0667 C   0  0  0  0  0  0  0  0  0  0  0  0
   -0.0199    3.7285   -0.3615 C   0  0  0  0  0  0  0  0  0  0  0  0
   -1.0855    1.7232    0.4633 C   0  0  0  0  0  0  0  0  0  0  0  0
    1.2061    3.0641   -0.3931 C   0  0  0  0  0  0  0  0  0  0  0  0
    0.1406    1.0587    0.4316 C   0  0  0  0  0  0  0  0  0  0  0  0
    5.7871   -2.1680    0.4622 C   0  0  0  0  0  0  0  0  0  0  0  0
    4.6047   -1.6610    2.5071 C   0  0  0  0  0  0  0  0  0  0  0  0
    6.4771   -3.1898    1.1145 C   0  0  0  0  0  0  0  0  0  0  0  0
    5.2947   -2.6827    3.1594 C   0  0  0  0  0  0  0  0  0  0  0  0
    1.2864    1.7291    0.0034 C   0  0  0  0  0  0  0  0  0  0  0  0
    4.8509   -1.4036    1.1585 C   0  0  0  0  0  0  0  0  0  0  0  0
    6.2310   -3.4471    2.4632 C   0  0  0  0  0  0  0  0  0  0  0  0
    2.5543    1.0425   -0.0284 C   0  0  0  0  0  0  0  0  0  0  0  0
    4.1380   -0.3494    0.4851 C   0  0  0  0  0  0  0  0  0  0  0  0
    3.5570    1.2659   -0.8475 N   0  0  0  0  0  0  0  0  0  0  0  0
    4.5647    0.3805   -0.5207 N   0  0  0  0  0  0  0  0  0  0  0  0
    2.8767    0.0335    0.8276 N   0  0  0  0  0  0  0  0  0  0  0  0
    6.8929   -4.4290    3.0895 F   0  0  0  0  0  0  0  0  0  0  0  0
   -2.1202    3.5757    0.0919 H   0  0  0  0  0  0  0  0  0  0  0  0
   -0.0827    4.7679   -0.6705 H   0  0  0  0  0  0  0  0  0  0  0  0
   -1.9775    1.2014    0.7977 H   0  0  0  0  0  0  0  0  0  0  0  0
    2.0906    3.6013   -0.7268 H   0  0  0  0  0  0  0  0  0  0  0  0
    0.1863    0.0178    0.7430 H   0  0  0  0  0  0  0  0  0  0  0  0
    5.9909   -1.9797   -0.5894 H   0  0  0  0  0  0  0  0  0  0  0  0
    3.8774   -1.0743    3.0636 H   0  0  0  0  0  0  0  0  0  0  0  0
    7.2053   -3.7856    0.5722 H   0  0  0  0  0  0  0  0  0  0  0  0
    5.1032   -2.8831    4.2096 H   0  0  0  0  0  0  0  0  0  0  0  0
    2.2997   -0.3509    1.5656 H   0  0  0  0  0  0  0  0  0  0  0  0
  1  2  2  0  0  0  0
  1  3  1  0  0  0  0
  1 19  1  0  0  0  0
  2  4  1  0  0  0  0
  2 20  1  0  0  0  0
  3  5  2  0  0  0  0
  3 21  1  0  0  0  0
  4 10  2  0  0  0  0
  4 22  1  0  0  0  0
  5 10  1  0  0  0  0
  5 23  1  0  0  0  0
  6  8  2  0  0  0  0
  6 11  1  0  0  0  0
  6 24  1  0  0  0  0
  7  9  1  0  0  0  0
  7 11  2  0  0  0  0
  7 25  1  0  0  0  0
  8 12  1  0  0  0  0
  8 26  1  0  0  0  0
  9 12  2  0  0  0  0
  9 27  1  0  0  0  0
 10 13  1  0  0  0  0
 11 14  1  0  0  0  0
 12 18  1  0  0  0  0
 13 15  2  0  0  0  0
 13 17  1  0  0  0  0
 14 16  2  0  0  0  0
 14 17  1  0  0  0  0
 15 16  1  0  0  0  0
 17 28  1  0  0  0  0
M  END
>  <name>
3-(4-fluorophenyl)-5-phenyl-4H-1,2,4-triazole

>  <score>
1.392

>  <target>


$$$$
DB08694
 OpenBabel11241310543D

 33 36  0  0  0  0  0  0  0  0999 V2000
    5.0631    2.1517   -2.6555 C   0  0  0  0  0  0  0  0  0  0  0  0
    1.1564    3.1149    0.2531 C   0  0  0  0  0  0  0  0  0  0  0  0
    5.9850    1.2121   -2.2224 C   0  0  0  0  0  0  0  0  0  0  0  0
   -0.1178    3.6425    0.2997 C   0  0  0  0  0  0  0  0  0  0  0  0
    3.5923    1.3378   -0.9449 C   0  0  0  0  0  0  0  0  0  0  0  0
    2.5091    1.1022   -0.0630 C   0  0  0  0  0  0  0  0  0  0  0  0
    3.8337    2.2246   -2.0077 C   0  0  0  0  0  0  0  0  0  0  0  0
    1.2326    1.7588    0.0097 C   0  0  0  0  0  0  0  0  0  0  0  0
    2.8802    0.0800    0.7804 C   0  0  0  0  0  0  0  0  0  0  0  0
    4.6041    0.4387   -0.6069 C   0  0  0  0  0  0  0  0  0  0  0  0
   -1.0321    1.6013   -0.1066 C   0  0  0  0  0  0  0  0  0  0  0  0
    2.2508   -0.5915    1.8483 C   0  0  0  0  0  0  0  0  0  0  0  0
    2.9324   -1.5684    2.4620 C   0  0  0  0  0  0  0  0  0  0  0  0
    4.8166   -1.3736    1.1502 C   0  0  0  0  0  0  0  0  0  0  0  0
    5.8078    0.3363   -1.2086 N   0  0  0  0  0  0  0  0  0  0  0  0
   -1.2384    2.9120    0.1235 N   0  0  0  0  0  0  0  0  0  0  0  0
    0.1547    0.9687   -0.1755 N   0  0  0  0  0  0  0  0  0  0  0  0
    4.2044   -1.9770    2.1378 N   0  0  0  0  0  0  0  0  0  0  0  0
    4.1599   -0.3317    0.4546 N   0  0  0  0  0  0  0  0  0  0  0  0
   -2.1832    0.8054   -0.2949 N   0  0  0  0  0  0  0  0  0  0  0  0
    6.0853   -1.7150    0.7574 N   0  0  0  0  0  0  0  0  0  0  0  0
    2.9054    3.1430   -2.4151 O   0  0  0  0  0  0  0  0  0  0  0  0
    5.2993    2.8143   -3.4820 H   0  0  0  0  0  0  0  0  0  0  0  0
    2.0303    3.7374    0.4001 H   0  0  0  0  0  0  0  0  0  0  0  0
    6.9519    1.1377   -2.7134 H   0  0  0  0  0  0  0  0  0  0  0  0
   -0.2779    4.6993    0.4844 H   0  0  0  0  0  0  0  0  0  0  0  0
    1.2478   -0.3258    2.1627 H   0  0  0  0  0  0  0  0  0  0  0  0
    2.4735   -2.1028    3.2874 H   0  0  0  0  0  0  0  0  0  0  0  0
   -3.0850    1.2259   -0.2044 H   0  0  0  0  0  0  0  0  0  0  0  0
   -2.0773   -0.1800   -0.4215 H   0  0  0  0  0  0  0  0  0  0  0  0
    6.5477   -2.4466    1.2451 H   0  0  0  0  0  0  0  0  0  0  0  0
    6.4932   -1.2175    0.0004 H   0  0  0  0  0  0  0  0  0  0  0  0
    3.2552    3.6585   -3.1563 H   0  0  0  0  0  0  0  0  0  0  0  0
  1  3  2  0  0  0  0
  1  7  1  0  0  0  0
  1 23  1  0  0  0  0
  2  4  2  0  0  0  0
  2  8  1  0  0  0  0
  2 24  1  0  0  0  0
  3 15  1  0  0  0  0
  3 25  1  0  0  0  0
  4 16  1  0  0  0  0
  4 26  1  0  0  0  0
  5  6  1  0  0  0  0
  5  7  2  0  0  0  0
  5 10  1  0  0  0  0
  6  8  1  0  0  0  0
  6  9  2  0  0  0  0
  7 22  1  0  0  0  0
  8 17  2  0  0  0  0
  9 12  1  0  0  0  0
  9 19  1  0  0  0  0
 10 15  2  0  0  0  0
 10 19  1  0  0  0  0
 11 16  2  0  0  0  0
 11 17  1  0  0  0  0
 11 20  1  0  0  0  0
 12 13  2  0  0  0  0
 12 27  1  0  0  0  0
 13 18  1  0  0  0  0
 13 28  1  0  0  0  0
 14 18  2  0  0  0  0
 14 19  1  0  0  0  0
 14 21  1  0  0  0  0
 20 29  1  0  0  0  0
 20 30  1  0  0  0  0
 21 31  1  0  0  0  0
 21 32  1  0  0  0  0
 22 33  1  0  0  0  0
M  END
>  <name>
9-amino-5-(2-aminopyrimidin-4-yl)pyrido[3',2':4,5]pyrrolo[1,2-c]pyrimidin-4-ol

>  <score>
1.382

>  <target>
Cell division protein kinase 2

$$$$
DB06833
 OpenBabel11241310543D

 54 57  0  0  0  0  0  0  0  0999 V2000
    4.9700    1.9826   -2.7566 C   0  0  0  0  0  0  0  0  0  0  0  0
    5.9508    1.0526   -2.4174 C   0  0  0  0  0  0  0  0  0  0  0  0
    3.7889    2.0819   -2.0123 C   0  0  0  0  0  0  0  0  0  0  0  0
    5.4060   -2.6419    3.1694 C   0  0  0  0  0  0  0  0  0  0  0  0
    6.4467   -3.2465    1.0745 C   0  0  0  0  0  0  0  0  0  0  0  0
    5.7838    0.1945   -1.3266 C   0  0  0  0  0  0  0  0  0  0  0  0
    4.7029   -1.6234    2.5262 C   0  0  0  0  0  0  0  0  0  0  0  0
    5.7435   -2.2278    0.4313 C   0  0  0  0  0  0  0  0  0  0  0  0
    2.9336    0.0499    0.9031 C   0  0  0  0  0  0  0  0  0  0  0  0
    3.5983    1.2273   -0.9084 C   0  0  0  0  0  0  0  0  0  0  0  0
    6.2780   -3.4535    2.4436 C   0  0  0  0  0  0  0  0  0  0  0  0
    2.5545    1.0548    0.0432 C   0  0  0  0  0  0  0  0  0  0  0  0
    4.5981    0.3051   -0.5917 C   0  0  0  0  0  0  0  0  0  0  0  0
    4.8716   -1.4164    1.1572 C   0  0  0  0  0  0  0  0  0  0  0  0
   -3.5883    2.2271   -2.7588 C   0  0  0  0  0  0  0  0  0  0  0  0
   -2.3052    1.4084   -2.8623 C   0  0  0  0  0  0  0  0  0  0  0  0
   -3.4098    3.4370   -1.8470 C   0  0  0  0  0  0  0  0  0  0  0  0
   -1.7847    1.0005   -1.4860 C   0  0  0  0  0  0  0  0  0  0  0  0
   -2.8911    3.0324   -0.4690 C   0  0  0  0  0  0  0  0  0  0  0  0
   -1.5954    2.2161   -0.5686 C   0  0  0  0  0  0  0  0  0  0  0  0
    7.0297   -4.5425    3.1312 C   0  0  0  0  0  0  0  0  0  0  0  0
    1.2683    1.8246    0.1074 C   0  0  0  0  0  0  0  0  0  0  0  0
   -1.1259    1.7781    0.8174 C   0  0  0  0  0  0  0  0  0  0  0  0
    4.1677   -0.3958    0.5122 N   0  0  0  0  0  0  0  0  0  0  0  0
    0.1402    1.0314    0.6743 N   0  0  0  0  0  0  0  0  0  0  0  0
    5.1214    2.6395   -3.6092 H   0  0  0  0  0  0  0  0  0  0  0  0
    6.8610    0.9935   -3.0085 H   0  0  0  0  0  0  0  0  0  0  0  0
    3.0346    2.8130   -2.2888 H   0  0  0  0  0  0  0  0  0  0  0  0
    5.2689   -2.7966    4.2363 H   0  0  0  0  0  0  0  0  0  0  0  0
    7.1240   -3.8737    0.5011 H   0  0  0  0  0  0  0  0  0  0  0  0
    6.5523   -0.5270   -1.0694 H   0  0  0  0  0  0  0  0  0  0  0  0
    4.0270   -0.9974    3.1039 H   0  0  0  0  0  0  0  0  0  0  0  0
    5.8851   -2.0778   -0.6363 H   0  0  0  0  0  0  0  0  0  0  0  0
    2.4246   -0.3797    1.7568 H   0  0  0  0  0  0  0  0  0  0  0  0
   -3.8958    2.5597   -3.7566 H   0  0  0  0  0  0  0  0  0  0  0  0
   -4.3948    1.5931   -2.3700 H   0  0  0  0  0  0  0  0  0  0  0  0
   -2.4875    0.5136   -3.4679 H   0  0  0  0  0  0  0  0  0  0  0  0
   -1.5387    1.9958   -3.3830 H   0  0  0  0  0  0  0  0  0  0  0  0
   -2.7073    4.1414   -2.3094 H   0  0  0  0  0  0  0  0  0  0  0  0
   -4.3657    3.9625   -1.7413 H   0  0  0  0  0  0  0  0  0  0  0  0
   -2.4895    0.2938   -1.0290 H   0  0  0  0  0  0  0  0  0  0  0  0
   -0.8331    0.4682   -1.6029 H   0  0  0  0  0  0  0  0  0  0  0  0
   -2.7202    3.9340    0.1312 H   0  0  0  0  0  0  0  0  0  0  0  0
   -3.6618    2.4474    0.0490 H   0  0  0  0  0  0  0  0  0  0  0  0
   -0.8158    2.8572   -1.0014 H   0  0  0  0  0  0  0  0  0  0  0  0
    6.4527   -5.4752    3.1135 H   0  0  0  0  0  0  0  0  0  0  0  0
    7.9989   -4.7240    2.6485 H   0  0  0  0  0  0  0  0  0  0  0  0
    7.2396   -4.2829    4.1771 H   0  0  0  0  0  0  0  0  0  0  0  0
    1.3717    2.7168    0.7343 H   0  0  0  0  0  0  0  0  0  0  0  0
    0.9532    2.1519   -0.8893 H   0  0  0  0  0  0  0  0  0  0  0  0
   -1.8512    1.1137    1.2830 H   0  0  0  0  0  0  0  0  0  0  0  0
   -0.9320    2.6394    1.4536 H   0  0  0  0  0  0  0  0  0  0  0  0
   -0.0116    0.2018    0.0785 H   0  0  0  0  0  0  0  0  0  0  0  0
    0.4288    0.6578    1.5928 H   0  0  0  0  0  0  0  0  0  0  0  0
  1  2  2  0  0  0  0
  1  3  1  0  0  0  0
  1 26  1  0  0  0  0
  2  6  1  0  0  0  0
  2 27  1  0  0  0  0
  3 10  2  0  0  0  0
  3 28  1  0  0  0  0
  4  7  2  0  0  0  0
  4 11  1  0  0  0  0
  4 29  1  0  0  0  0
  5  8  1  0  0  0  0
  5 11  2  0  0  0  0
  5 30  1  0  0  0  0
  6 13  2  0  0  0  0
  6 31  1  0  0  0  0
  7 14  1  0  0  0  0
  7 32  1  0  0  0  0
  8 14  2  0  0  0  0
  8 33  1  0  0  0  0
  9 12  2  0  0  0  0
  9 24  1  0  0  0  0
  9 34  1  0  0  0  0
 10 12  1  0  0  0  0
 10 13  1  0  0  0  0
 11 21  1  0  0  0  0
 12 22  1  0  0  0  0
 13 24  1  0  0  0  0
 14 24  1  0  0  0  0
 15 16  1  0  0  0  0
 15 17  1  0  0  0  0
 15 35  1  0  0  0  0
 15 36  1  0  0  0  0
 16 18  1  0  0  0  0
 16 37  1  0  0  0  0
 16 38  1  0  0  0  0
 17 19  1  0  0  0  0
 17 39  1  0  0  0  0
 17 40  1  0  0  0  0
 18 20  1  0  0  0  0
 18 41  1  0  0  0  0
 18 42  1  0  0  0  0
 19 20  1  0  0  0  0
 19 43  1  0  0  0  0
 19 44  1  0  0  0  0
 20 23  1  0  0  0  0
 20 45  1  0  0  0  0
 21 46  1  0  0  0  0
 21 47  1  0  0  0  0
 21 48  1  0  0  0  0
 22 25  1  0  0  0  0
 22 49  1  0  0  0  0
 22 50  1  0  0  0  0
 23 25  1  0  0  0  0
 23 51  1  0  0  0  0
 23 52  1  0  0  0  0
 25 53  1  0  0  0  0
 25 54  1  0  0  0  0
M  END
>  <name>
1-CYCLOHEXYL-N-{[1-(4-METHYLPHENYL)-1H-INDOL-3-YL]METHYL}METHANAMINE

>  <score>
1.381

>  <target>


$$$$
DB00210
 OpenBabel11241310543D

 58 63  0  0  1  0  0  0  0  0999 V2000
   -1.2529    1.5952    0.6919 C   0  0  0  0  0  0  0  0  0  0  0  0
   -1.0510    5.1662   -0.3015 C   0  0  0  0  0  0  0  0  0  0  0  0
    0.0373    1.1561    0.3932 C   0  0  0  0  0  0  0  0  0  0  0  0
    3.0243    2.1805   -1.4843 C   0  0  0  0  0  0  0  0  0  0  0  0
   -2.3412    5.6053   -0.0029 C   0  0  0  0  0  0  0  0  0  0  0  0
    4.3133    1.7395   -1.7837 C   0  0  0  0  0  0  0  0  0  0  0  0
    0.6164    3.3724   -0.3686 C   0  0  0  0  0  0  0  0  0  0  0  0
   -2.9204    3.3889    0.7588 C   0  0  0  0  0  0  0  0  0  0  0  0
    2.8788    0.5492    0.2918 C   0  0  0  0  0  0  0  0  0  0  0  0
   -0.6776    3.8317   -0.0739 C   0  0  0  0  0  0  0  0  0  0  0  0
   -1.6263    2.9298    0.4642 C   0  0  0  0  0  0  0  0  0  0  0  0
    0.9701    2.0429   -0.1360 C   0  0  0  0  0  0  0  0  0  0  0  0
    2.3070    1.5854   -0.4464 C   0  0  0  0  0  0  0  0  0  0  0  0
   -3.2741    4.7183    0.5264 C   0  0  0  0  0  0  0  0  0  0  0  0
    4.1678    0.1082   -0.0077 C   0  0  0  0  0  0  0  0  0  0  0  0
    4.8850    0.7034   -1.0455 C   0  0  0  0  0  0  0  0  0  0  0  0
   -4.6349    5.1833    0.8399 C   0  0  0  0  0  0  0  0  0  0  0  0
    4.7197   -3.8197    1.7882 C   0  0  0  0  0  0  0  0  0  0  0  0
    5.6658   -2.1496    3.4007 C   0  0  0  0  0  0  0  0  0  0  0  0
    7.0035   -2.8612    1.4041 C   0  0  0  0  0  0  0  0  0  0  0  0
    3.7756   -1.5007    1.8889 C   0  0  0  0  0  0  0  0  0  0  0  0
    5.1061   -2.2249   -0.1084 C   0  0  0  0  0  0  0  0  0  0  0  0
    6.0611   -0.5392    1.5189 C   0  0  0  0  0  0  0  0  0  0  0  0
    4.3833   -2.6455    2.7182 C   0  0  1  0  0  0  0  0  0  0  0  0
    5.7232   -3.3663    0.7188 C   0  0  2  0  0  0  0  0  0  0  0  0
    6.6747   -1.6868    2.3402 C   0  0  1  0  0  0  0  0  0  0  0  0
    4.7638   -1.0010    0.7917 C   0  0  1  0  0  0  0  0  0  0  0  0
    6.8046    0.9485   -2.4276 C   0  0  0  0  0  0  0  0  0  0  0  0
   -5.4797    4.3428    1.3285 O   0  0  0  0  0  0  0  0  0  0  0  0
   -4.9362    6.4151    0.6151 O   0  0  0  0  0  0  0  0  0  0  0  0
    6.1444    0.2844   -1.3520 O   0  0  0  0  0  0  0  0  0  0  0  0
   -1.9660    0.8843    1.1041 H   0  0  0  0  0  0  0  0  0  0  0  0
   -0.3386    5.8774   -0.7145 H   0  0  0  0  0  0  0  0  0  0  0  0
    0.2981    0.1168    0.5788 H   0  0  0  0  0  0  0  0  0  0  0  0
    2.5928    2.9894   -2.0692 H   0  0  0  0  0  0  0  0  0  0  0  0
   -2.6073    6.6429   -0.1880 H   0  0  0  0  0  0  0  0  0  0  0  0
    4.8669    2.2069   -2.5936 H   0  0  0  0  0  0  0  0  0  0  0  0
    1.3513    4.0611   -0.7835 H   0  0  0  0  0  0  0  0  0  0  0  0
   -3.6595    2.7045    1.1730 H   0  0  0  0  0  0  0  0  0  0  0  0
    2.3234    0.0815    1.1026 H   0  0  0  0  0  0  0  0  0  0  0  0
    5.1392   -4.6502    2.3694 H   0  0  0  0  0  0  0  0  0  0  0  0
    3.8060   -4.1950    1.3112 H   0  0  0  0  0  0  0  0  0  0  0  0
    5.4328   -1.3233    4.0836 H   0  0  0  0  0  0  0  0  0  0  0  0
    6.1013   -2.9517    4.0090 H   0  0  0  0  0  0  0  0  0  0  0  0
    7.4669   -3.6751    1.9752 H   0  0  0  0  0  0  0  0  0  0  0  0
    7.7345   -2.5466    0.6491 H   0  0  0  0  0  0  0  0  0  0  0  0
    2.8395   -1.8393    1.4245 H   0  0  0  0  0  0  0  0  0  0  0  0
    3.5022   -0.6698    2.5536 H   0  0  0  0  0  0  0  0  0  0  0  0
    5.8067   -1.9235   -0.8987 H   0  0  0  0  0  0  0  0  0  0  0  0
    4.2025   -2.5839   -0.6193 H   0  0  0  0  0  0  0  0  0  0  0  0
    5.8435    0.3129    2.1770 H   0  0  0  0  0  0  0  0  0  0  0  0
    6.7942   -0.1806    0.7840 H   0  0  0  0  0  0  0  0  0  0  0  0
    3.6642   -2.9717    3.4780 H   0  0  0  0  0  0  0  0  0  0  0  0
    5.9651   -4.2080    0.0602 H   0  0  0  0  0  0  0  0  0  0  0  0
    7.5908   -1.3385    2.8305 H   0  0  0  0  0  0  0  0  0  0  0  0
    7.7994    0.5182   -2.5669 H   0  0  0  0  0  0  0  0  0  0  0  0
    6.8855    2.0151   -2.2037 H   0  0  0  0  0  0  0  0  0  0  0  0
    6.2205    0.8132   -3.3411 H   0  0  0  0  0  0  0  0  0  0  0  0
  1  3  2  0  0  0  0
  1 11  1  0  0  0  0
  1 32  1  0  0  0  0
  2  5  2  0  0  0  0
  2 10  1  0  0  0  0
  2 33  1  0  0  0  0
  3 12  1  0  0  0  0
  3 34  1  0  0  0  0
  4  6  2  0  0  0  0
  4 13  1  0  0  0  0
  4 35  1  0  0  0  0
  5 14  1  0  0  0  0
  5 36  1  0  0  0  0
  6 16  1  0  0  0  0
  6 37  1  0  0  0  0
  7 10  1  0  0  0  0
  7 12  2  0  0  0  0
  7 38  1  0  0  0  0
  8 11  1  0  0  0  0
  8 14  2  0  0  0  0
  8 39  1  0  0  0  0
  9 13  2  0  0  0  0
  9 15  1  0  0  0  0
  9 40  1  0  0  0  0
 10 11  2  0  0  0  0
 12 13  1  0  0  0  0
 14 17  1  0  0  0  0
 15 16  2  0  0  0  0
 16 31  1  0  0  0  0
 17 29  1  0  0  0  0
 17 30  2  0  0  0  0
 18 24  1  0  0  0  0
 18 25  1  0  0  0  0
 18 41  1  0  0  0  0
 18 42  1  0  0  0  0
 19 24  1  0  0  0  0
 19 26  1  0  0  0  0
 19 43  1  0  0  0  0
 19 44  1  0  0  0  0
 20 25  1  0  0  0  0
 20 26  1  0  0  0  0
 20 45  1  0  0  0  0
 20 46  1  0  0  0  0
 21 24  1  0  0  0  0
 21 27  1  0  0  0  0
 21 47  1  0  0  0  0
 21 48  1  0  0  0  0
 22 25  1  0  0  0  0
 22 27  1  0  0  0  0
 22 49  1  0  0  0  0
 22 50  1  0  0  0  0
 23 26  1  0  0  0  0
 23 27  1  0  0  0  0
 23 51  1  0  0  0  0
 23 52  1  0  0  0  0
 24 53  1  1  0  0  0
 25 54  1  6  0  0  0
 26 55  1  1  0  0  0
 27 15  1  6  0  0  0
 28 31  1  0  0  0  0
 28 56  1  0  0  0  0
 28 57  1  0  0  0  0
 28 58  1  0  0  0  0
M  END
>  <name>
Adapalene

>  <score>
1.376

>  <target>
Retinoic acid receptor gamma-1
Retinoic acid receptor beta
Retinoic acid receptor RXR-gamma
Retinoic acid receptor RXR-beta
Retinoic acid receptor alpha

$$$$
DB07728
 OpenBabel11241310543D

 37 40  0  0  0  0  0  0  0  0999 V2000
    6.0332   -3.5044    1.0097 C   0  0  0  0  0  0  0  0  0  0  0  0
    6.1906   -3.3544    2.3874 C   0  0  0  0  0  0  0  0  0  0  0  0
    5.4958   -2.4640    0.2517 C   0  0  0  0  0  0  0  0  0  0  0  0
    5.8106   -2.1639    3.0072 C   0  0  0  0  0  0  0  0  0  0  0  0
    3.6200    1.8326   -1.4764 C   0  0  0  0  0  0  0  0  0  0  0  0
    3.2853    0.2827    0.3320 C   0  0  0  0  0  0  0  0  0  0  0  0
    1.0105    3.1332   -0.4655 C   0  0  0  0  0  0  0  0  0  0  0  0
    4.8798    1.2809   -1.6446 C   0  0  0  0  0  0  0  0  0  0  0  0
    5.1158   -1.2736    0.8715 C   0  0  0  0  0  0  0  0  0  0  0  0
    2.8138    1.3183   -0.4670 C   0  0  0  0  0  0  0  0  0  0  0  0
   -0.3550    3.1339   -0.0918 C   0  0  0  0  0  0  0  0  0  0  0  0
    5.2731   -1.1235    2.2493 C   0  0  0  0  0  0  0  0  0  0  0  0
    4.5601   -0.1999    0.0826 C   0  0  0  0  0  0  0  0  0  0  0  0
    1.4929    1.8579   -0.2495 C   0  0  0  0  0  0  0  0  0  0  0  0
   -0.6524    1.8623    0.3504 C   0  0  0  0  0  0  0  0  0  0  0  0
   -1.3543    4.1854   -0.0909 C   0  0  0  0  0  0  0  0  0  0  0  0
   -1.9698    1.4269    0.8704 C   0  0  0  0  0  0  0  0  0  0  0  0
   -3.0408    2.3341    0.2529 C   0  0  0  0  0  0  0  0  0  0  0  0
    5.3723    0.2743   -0.8885 N   0  0  0  0  0  0  0  0  0  0  0  0
    0.4688    1.0902    0.2492 N   0  0  0  0  0  0  0  0  0  0  0  0
   -2.6444    3.7458    0.2066 N   0  0  0  0  0  0  0  0  0  0  0  0
   -1.0734    5.3591   -0.3150 O   0  0  0  0  0  0  0  0  0  0  0  0
    4.9114    0.0138    2.8608 F   0  0  0  0  0  0  0  0  0  0  0  0
    6.3294   -4.4313    0.5272 H   0  0  0  0  0  0  0  0  0  0  0  0
    6.6089   -4.1644    2.9776 H   0  0  0  0  0  0  0  0  0  0  0  0
    5.3793   -2.5965   -0.8214 H   0  0  0  0  0  0  0  0  0  0  0  0
    5.9331   -2.0471    4.0800 H   0  0  0  0  0  0  0  0  0  0  0  0
    3.2865    2.6399   -2.1204 H   0  0  0  0  0  0  0  0  0  0  0  0
    2.6735   -0.1354    1.1268 H   0  0  0  0  0  0  0  0  0  0  0  0
    1.5800    3.9686   -0.8505 H   0  0  0  0  0  0  0  0  0  0  0  0
    5.5475    1.6464   -2.4180 H   0  0  0  0  0  0  0  0  0  0  0  0
   -2.1774    0.3780    0.6356 H   0  0  0  0  0  0  0  0  0  0  0  0
   -1.9750    1.5379    1.9611 H   0  0  0  0  0  0  0  0  0  0  0  0
   -3.2358    2.0365   -0.7843 H   0  0  0  0  0  0  0  0  0  0  0  0
   -3.9807    2.2626    0.8088 H   0  0  0  0  0  0  0  0  0  0  0  0
    0.5361    0.1146    0.5073 H   0  0  0  0  0  0  0  0  0  0  0  0
   -3.3529    4.4462    0.4031 H   0  0  0  0  0  0  0  0  0  0  0  0
  1  2  2  0  0  0  0
  1  3  1  0  0  0  0
  1 24  1  0  0  0  0
  2  4  1  0  0  0  0
  2 25  1  0  0  0  0
  3  9  2  0  0  0  0
  3 26  1  0  0  0  0
  4 12  2  0  0  0  0
  4 27  1  0  0  0  0
  5  8  2  0  0  0  0
  5 10  1  0  0  0  0
  5 28  1  0  0  0  0
  6 10  2  0  0  0  0
  6 13  1  0  0  0  0
  6 29  1  0  0  0  0
  7 11  1  0  0  0  0
  7 14  2  0  0  0  0
  7 30  1  0  0  0  0
  8 19  1  0  0  0  0
  8 31  1  0  0  0  0
  9 12  1  0  0  0  0
  9 13  1  0  0  0  0
 10 14  1  0  0  0  0
 11 15  2  0  0  0  0
 11 16  1  0  0  0  0
 12 23  1  0  0  0  0
 13 19  2  0  0  0  0
 14 20  1  0  0  0  0
 15 17  1  0  0  0  0
 15 20  1  0  0  0  0
 16 21  1  0  0  0  0
 16 22  2  0  0  0  0
 17 18  1  0  0  0  0
 17 32  1  0  0  0  0
 17 33  1  0  0  0  0
 18 21  1  0  0  0  0
 18 34  1  0  0  0  0
 18 35  1  0  0  0  0
 20 36  1  0  0  0  0
 21 37  1  0  0  0  0
M  END
>  <name>
2-[2-(2-FLUOROPHENYL)PYRIDIN-4-YL]-1,5,6,7-TETRAHYDRO-4H-PYRROLO[3,2-C]PYRIDIN-4-ONE

>  <score>
1.339

>  <target>
MAP kinase-activated protein kinase 2

$$$$
DB07151
 OpenBabel11241310543D

 35 37  0  0  0  0  0  0  0  0999 V2000
   -1.0948    2.9302    0.0699 C   0  0  0  0  0  0  0  0  0  0  0  0
   -0.7418    1.6598    0.5249 C   0  0  0  0  0  0  0  0  0  0  0  0
   -0.1486    3.7291   -0.5721 C   0  0  0  0  0  0  0  0  0  0  0  0
    0.5575    1.1883    0.3379 C   0  0  0  0  0  0  0  0  0  0  0  0
    1.1507    3.2576   -0.7590 C   0  0  0  0  0  0  0  0  0  0  0  0
    5.9746   -2.2256    0.2330 C   0  0  0  0  0  0  0  0  0  0  0  0
    6.4593   -3.3020    0.9759 C   0  0  0  0  0  0  0  0  0  0  0  0
    4.9419   -1.3190    2.2201 C   0  0  0  0  0  0  0  0  0  0  0  0
    1.5039    1.9871   -0.3040 C   0  0  0  0  0  0  0  0  0  0  0  0
    5.2159   -1.2341    0.8551 C   0  0  0  0  0  0  0  0  0  0  0  0
    5.4265   -2.3954    2.9631 C   0  0  0  0  0  0  0  0  0  0  0  0
    6.1853   -3.3869    2.3410 C   0  0  0  0  0  0  0  0  0  0  0  0
    2.8585    1.4954   -0.4988 C   0  0  0  0  0  0  0  0  0  0  0  0
    4.7097   -0.1091    0.0775 C   0  0  0  0  0  0  0  0  0  0  0  0
    4.8625    1.4118   -1.6594 C   0  0  0  0  0  0  0  0  0  0  0  0
    3.4169    0.5281    0.5141 C   0  0  0  0  0  0  0  0  0  0  0  0
    5.1226   -2.4714    4.4230 C   0  0  0  0  0  0  0  0  0  0  0  0
    3.5742    1.8889   -1.5059 N   0  0  0  0  0  0  0  0  0  0  0  0
    5.3621    0.3372   -0.9478 N   0  0  0  0  0  0  0  0  0  0  0  0
    5.5924    1.9554   -2.4861 O   0  0  0  0  0  0  0  0  0  0  0  0
    6.6644   -4.4465    3.0511 O   0  0  0  0  0  0  0  0  0  0  0  0
   -2.1065    3.2974    0.2154 H   0  0  0  0  0  0  0  0  0  0  0  0
   -1.4787    1.0381    1.0249 H   0  0  0  0  0  0  0  0  0  0  0  0
   -0.4236    4.7182   -0.9266 H   0  0  0  0  0  0  0  0  0  0  0  0
    0.8219    0.1968    0.6964 H   0  0  0  0  0  0  0  0  0  0  0  0
    1.8799    3.8887   -1.2605 H   0  0  0  0  0  0  0  0  0  0  0  0
    6.1947   -2.1687   -0.8301 H   0  0  0  0  0  0  0  0  0  0  0  0
    7.0512   -4.0697    0.4852 H   0  0  0  0  0  0  0  0  0  0  0  0
    4.3496   -0.5470    2.7063 H   0  0  0  0  0  0  0  0  0  0  0  0
    3.6008    1.0755    1.4458 H   0  0  0  0  0  0  0  0  0  0  0  0
    2.6762   -0.2549    0.7101 H   0  0  0  0  0  0  0  0  0  0  0  0
    4.1875   -3.0191    4.5887 H   0  0  0  0  0  0  0  0  0  0  0  0
    5.9266   -2.9794    4.9698 H   0  0  0  0  0  0  0  0  0  0  0  0
    5.0231   -1.4699    4.8601 H   0  0  0  0  0  0  0  0  0  0  0  0
    7.1662   -5.0395    2.4703 H   0  0  0  0  0  0  0  0  0  0  0  0
  1  2  2  0  0  0  0
  1  3  1  0  0  0  0
  1 22  1  0  0  0  0
  2  4  1  0  0  0  0
  2 23  1  0  0  0  0
  3  5  2  0  0  0  0
  3 24  1  0  0  0  0
  4  9  2  0  0  0  0
  4 25  1  0  0  0  0
  5  9  1  0  0  0  0
  5 26  1  0  0  0  0
  6  7  2  0  0  0  0
  6 10  1  0  0  0  0
  6 27  1  0  0  0  0
  7 12  1  0  0  0  0
  7 28  1  0  0  0  0
  8 10  2  0  0  0  0
  8 11  1  0  0  0  0
  8 29  1  0  0  0  0
  9 13  1  0  0  0  0
 10 14  1  0  0  0  0
 11 12  2  0  0  0  0
 11 17  1  0  0  0  0
 12 21  1  0  0  0  0
 13 16  1  0  0  0  0
 13 18  2  0  0  0  0
 14 16  1  0  0  0  0
 14 19  2  0  0  0  0
 15 18  1  0  0  0  0
 15 19  1  0  0  0  0
 15 20  2  0  0  0  0
 16 30  1  0  0  0  0
 16 31  1  0  0  0  0
 17 32  1  0  0  0  0
 17 33  1  0  0  0  0
 17 34  1  0  0  0  0
 21 35  1  0  0  0  0
M  END
>  <name>
4-(4-hydroxy-3-methylphenyl)-6-phenylpyrimidin-2(5H)-one

>  <score>
1.33

>  <target>


$$$$
DB08317
 OpenBabel11241310543D

 33 35  0  0  0  0  0  0  0  0999 V2000
   -1.4404    3.1664    0.1167 C   0  0  0  0  0  0  0  0  0  0  0  0
   -0.3222    3.9785    0.1786 C   0  0  0  0  0  0  0  0  0  0  0  0
   -1.3044    1.8099   -0.1176 C   0  0  0  0  0  0  0  0  0  0  0  0
    0.9362    3.4386    0.0063 C   0  0  0  0  0  0  0  0  0  0  0  0
   -0.0513    1.2603   -0.2971 C   0  0  0  0  0  0  0  0  0  0  0  0
    2.8556    0.4417    0.4157 C   0  0  0  0  0  0  0  0  0  0  0  0
    4.0910   -0.1086    0.2685 C   0  0  0  0  0  0  0  0  0  0  0  0
    4.5293    1.4178   -1.5796 C   0  0  0  0  0  0  0  0  0  0  0  0
    1.0791    2.0727   -0.2305 C   0  0  0  0  0  0  0  0  0  0  0  0
    2.4291    1.4867   -0.4170 C   0  0  0  0  0  0  0  0  0  0  0  0
    3.2596    1.9759   -1.4122 C   0  0  0  0  0  0  0  0  0  0  0  0
    4.9517    0.3625   -0.7340 C   0  0  0  0  0  0  0  0  0  0  0  0
    5.4233    1.8770   -2.5801 C   0  0  0  0  0  0  0  0  0  0  0  0
    6.9671    0.3086   -1.8607 C   0  0  0  0  0  0  0  0  0  0  0  0
    2.7982    3.0991   -2.3046 C   0  0  0  0  0  0  0  0  0  0  0  0
    6.1751   -0.1569   -0.9135 N   0  0  0  0  0  0  0  0  0  0  0  0
    6.6107    1.2971   -2.6759 N   0  0  0  0  0  0  0  0  0  0  0  0
    5.0660    2.9001   -3.4314 N   0  0  0  0  0  0  0  0  0  0  0  0
    8.2207   -0.2553   -2.0120 N   0  0  0  0  0  0  0  0  0  0  0  0
   -2.4232    3.5931    0.2522 H   0  0  0  0  0  0  0  0  0  0  0  0
   -0.4341    5.0367    0.3625 H   0  0  0  0  0  0  0  0  0  0  0  0
   -2.1809    1.1806   -0.1646 H   0  0  0  0  0  0  0  0  0  0  0  0
    1.8085    4.0734    0.0552 H   0  0  0  0  0  0  0  0  0  0  0  0
    0.0537    0.2010   -0.4800 H   0  0  0  0  0  0  0  0  0  0  0  0
    2.1960    0.0717    1.1867 H   0  0  0  0  0  0  0  0  0  0  0  0
    4.4055   -0.9127    0.9172 H   0  0  0  0  0  0  0  0  0  0  0  0
    2.4189    2.6876   -3.2400 H   0  0  0  0  0  0  0  0  0  0  0  0
    2.0062    3.6576   -1.8057 H   0  0  0  0  0  0  0  0  0  0  0  0
    3.6357    3.7645   -2.5137 H   0  0  0  0  0  0  0  0  0  0  0  0
    5.7048    3.5977   -3.6464 H   0  0  0  0  0  0  0  0  0  0  0  0
    4.1755    2.9228   -3.8156 H   0  0  0  0  0  0  0  0  0  0  0  0
    8.8193    0.0713   -2.7019 H   0  0  0  0  0  0  0  0  0  0  0  0
    8.5013   -0.9775   -1.4284 H   0  0  0  0  0  0  0  0  0  0  0  0
  1  2  2  0  0  0  0
  1  3  1  0  0  0  0
  1 20  1  0  0  0  0
  2  4  1  0  0  0  0
  2 21  1  0  0  0  0
  3  5  2  0  0  0  0
  3 22  1  0  0  0  0
  4  9  2  0  0  0  0
  4 23  1  0  0  0  0
  5  9  1  0  0  0  0
  5 24  1  0  0  0  0
  6  7  2  0  0  0  0
  6 10  1  0  0  0  0
  6 25  1  0  0  0  0
  7 12  1  0  0  0  0
  7 26  1  0  0  0  0
  8 11  1  0  0  0  0
  8 12  2  0  0  0  0
  8 13  1  0  0  0  0
  9 10  1  0  0  0  0
 10 11  2  0  0  0  0
 11 15  1  0  0  0  0
 12 16  1  0  0  0  0
 13 17  2  0  0  0  0
 13 18  1  0  0  0  0
 14 16  2  0  0  0  0
 14 17  1  0  0  0  0
 14 19  1  0  0  0  0
 15 27  1  0  0  0  0
 15 28  1  0  0  0  0
 15 29  1  0  0  0  0
 18 30  1  0  0  0  0
 18 31  1  0  0  0  0
 19 32  1  0  0  0  0
 19 33  1  0  0  0  0
M  END
>  <name>
5-methyl-6-phenylquinazoline-2,4-diamine

>  <score>
1.326

>  <target>


$$$$
DB08789
 OpenBabel11241310543D

 35 37  0  0  0  0  0  0  0  0999 V2000
    1.3786    3.8020   -0.5485 C   0  0  0  0  0  0  0  0  0  0  0  0
    0.1022    4.1795   -0.1316 C   0  0  0  0  0  0  0  0  0  0  0  0
    3.3922    0.2532    0.2964 C   0  0  0  0  0  0  0  0  0  0  0  0
   -0.7090    1.9522   -0.5989 C   0  0  0  0  0  0  0  0  0  0  0  0
    3.6776    1.1387   -0.7900 C   0  0  0  0  0  0  0  0  0  0  0  0
    1.6113    2.4996   -0.9907 C   0  0  0  0  0  0  0  0  0  0  0  0
   -0.9417    3.2546   -0.1568 C   0  0  0  0  0  0  0  0  0  0  0  0
    0.5674    1.5747   -1.0159 C   0  0  0  0  0  0  0  0  0  0  0  0
    2.9419    2.1533   -1.4108 C   0  0  0  0  0  0  0  0  0  0  0  0
    4.4382   -0.6013    0.5693 C   0  0  0  0  0  0  0  0  0  0  0  0
    4.9502    0.9067   -1.2958 C   0  0  0  0  0  0  0  0  0  0  0  0
    4.7208    2.5131   -2.8269 C   0  0  0  0  0  0  0  0  0  0  0  0
    4.5271   -1.6152    1.5694 C   0  0  0  0  0  0  0  0  0  0  0  0
    6.9361   -4.0309    2.5781 C   0  0  0  0  0  0  0  0  0  0  0  0
    5.5042   -3.8621    2.1989 C   0  0  0  0  0  0  0  0  0  0  0  0
    3.4736    2.8459   -2.4406 N   0  0  0  0  0  0  0  0  0  0  0  0
    5.5291    1.5656   -2.3187 N   0  0  0  0  0  0  0  0  0  0  0  0
    5.2479    3.2560   -3.9074 N   0  0  0  0  0  0  0  0  0  0  0  0
    5.3313   -2.7444    1.2991 N   0  0  0  0  0  0  0  0  0  0  0  0
    3.8965   -1.5273    2.6544 O   0  0  0  0  0  0  0  0  0  0  0  0
    5.7667   -0.3452   -0.4773 S   0  0  0  0  0  0  0  0  0  0  0  0
   -2.5161    3.7217    0.3577 Cl  0  0  0  0  0  0  0  0  0  0  0  0
    0.7990   -0.0527   -1.5542 Cl  0  0  0  0  0  0  0  0  0  0  0  0
    2.1806    4.5361   -0.5219 H   0  0  0  0  0  0  0  0  0  0  0  0
   -0.0645    5.1977    0.2104 H   0  0  0  0  0  0  0  0  0  0  0  0
    2.4624    0.2433    0.8521 H   0  0  0  0  0  0  0  0  0  0  0  0
   -1.5252    1.2329   -0.6174 H   0  0  0  0  0  0  0  0  0  0  0  0
    7.5548   -4.2195    1.6941 H   0  0  0  0  0  0  0  0  0  0  0  0
    7.3098   -3.1415    3.0973 H   0  0  0  0  0  0  0  0  0  0  0  0
    7.0427   -4.8876    3.2542 H   0  0  0  0  0  0  0  0  0  0  0  0
    4.8921   -3.6740    3.0862 H   0  0  0  0  0  0  0  0  0  0  0  0
    5.1282   -4.7571    1.6947 H   0  0  0  0  0  0  0  0  0  0  0  0
    4.6718    3.9392   -4.3530 H   0  0  0  0  0  0  0  0  0  0  0  0
    6.1498    3.0189   -4.2646 H   0  0  0  0  0  0  0  0  0  0  0  0
    5.7746   -2.8119    0.3887 H   0  0  0  0  0  0  0  0  0  0  0  0
  1  2  2  0  0  0  0
  1  6  1  0  0  0  0
  1 24  1  0  0  0  0
  2  7  1  0  0  0  0
  2 25  1  0  0  0  0
  3  5  1  0  0  0  0
  3 10  2  0  0  0  0
  3 26  1  0  0  0  0
  4  7  2  0  0  0  0
  4  8  1  0  0  0  0
  4 27  1  0  0  0  0
  5  9  2  0  0  0  0
  5 11  1  0  0  0  0
  6  8  2  0  0  0  0
  6  9  1  0  0  0  0
  7 22  1  0  0  0  0
  8 23  1  0  0  0  0
  9 16  1  0  0  0  0
 10 13  1  0  0  0  0
 10 21  1  0  0  0  0
 11 17  2  0  0  0  0
 11 21  1  0  0  0  0
 12 16  2  0  0  0  0
 12 17  1  0  0  0  0
 12 18  1  0  0  0  0
 13 19  1  0  0  0  0
 13 20  2  0  0  0  0
 14 15  1  0  0  0  0
 14 28  1  0  0  0  0
 14 29  1  0  0  0  0
 14 30  1  0  0  0  0
 15 19  1  0  0  0  0
 15 31  1  0  0  0  0
 15 32  1  0  0  0  0
 18 33  1  0  0  0  0
 18 34  1  0  0  0  0
 19 35  1  0  0  0  0
M  END
>  <name>
2-AMINO-4-(2,4-DICHLOROPHENYL)-N-ETHYLTHIENO[2,3-D]PYRIMIDINE-6-CARBOXAMIDE

>  <score>
1.325

>  <target>


$$$$
DB07241
 OpenBabel11241310543D

 39 44  0  0  0  0  0  0  0  0999 V2000
    6.8849   -2.9740    1.5899 C   0  0  0  0  0  0  0  0  0  0  0  0
   -0.9046    3.4976   -0.5412 C   0  0  0  0  0  0  0  0  0  0  0  0
    6.0937   -3.5035    2.6038 C   0  0  0  0  0  0  0  0  0  0  0  0
   -1.6124    2.8978    0.4952 C   0  0  0  0  0  0  0  0  0  0  0  0
    6.4167   -1.9311    0.7842 C   0  0  0  0  0  0  0  0  0  0  0  0
    0.3892    3.0764   -0.8648 C   0  0  0  0  0  0  0  0  0  0  0  0
    4.8090   -3.0122    2.8488 C   0  0  0  0  0  0  0  0  0  0  0  0
   -1.0550    1.8585    1.2440 C   0  0  0  0  0  0  0  0  0  0  0  0
    5.1255   -1.4022    0.9948 C   0  0  0  0  0  0  0  0  0  0  0  0
    0.9934    2.0300   -0.1362 C   0  0  0  0  0  0  0  0  0  0  0  0
    4.3715   -0.3832    0.3816 C   0  0  0  0  0  0  0  0  0  0  0  0
    2.2431    1.3843   -0.2012 C   0  0  0  0  0  0  0  0  0  0  0  0
    4.4674    0.5496   -0.6421 C   0  0  0  0  0  0  0  0  0  0  0  0
    3.4260    1.4143   -0.9275 C   0  0  0  0  0  0  0  0  0  0  0  0
    4.3238   -1.9662    2.0500 C   0  0  0  0  0  0  0  0  0  0  0  0
    0.2420    1.4239    0.9327 C   0  0  0  0  0  0  0  0  0  0  0  0
    3.1808   -0.4247    1.1233 C   0  0  0  0  0  0  0  0  0  0  0  0
    2.1327    0.4455    0.8363 C   0  0  0  0  0  0  0  0  0  0  0  0
    5.5014    0.7905   -1.4996 C   0  0  0  0  0  0  0  0  0  0  0  0
    3.7807    2.2189   -1.9710 C   0  0  0  0  0  0  0  0  0  0  0  0
    6.8746    0.1541   -1.6463 C   0  0  0  0  0  0  0  0  0  0  0  0
    3.0769   -1.3342    2.1267 N   0  0  0  0  0  0  0  0  0  0  0  0
    0.9793    0.4080    1.5526 N   0  0  0  0  0  0  0  0  0  0  0  0
    5.0665    1.8249   -2.3179 N   0  0  0  0  0  0  0  0  0  0  0  0
    7.8166    0.6679   -0.9760 O   0  0  0  0  0  0  0  0  0  0  0  0
    6.9640   -0.8375   -2.4269 O   0  0  0  0  0  0  0  0  0  0  0  0
    3.1838    3.1958   -2.6336 O   0  0  0  0  0  0  0  0  0  0  0  0
    7.8810   -3.3749    1.4210 H   0  0  0  0  0  0  0  0  0  0  0  0
   -1.3616    4.3043   -1.1084 H   0  0  0  0  0  0  0  0  0  0  0  0
    6.4804   -4.3136    3.2173 H   0  0  0  0  0  0  0  0  0  0  0  0
   -2.6169    3.2425    0.7274 H   0  0  0  0  0  0  0  0  0  0  0  0
    7.0757   -1.5598    0.0118 H   0  0  0  0  0  0  0  0  0  0  0  0
    0.9084    3.5692   -1.6796 H   0  0  0  0  0  0  0  0  0  0  0  0
    4.2018   -3.4353    3.6435 H   0  0  0  0  0  0  0  0  0  0  0  0
   -1.6188    1.3992    2.0503 H   0  0  0  0  0  0  0  0  0  0  0  0
    2.3075   -1.5091    2.7596 H   0  0  0  0  0  0  0  0  0  0  0  0
    0.7207   -0.1917    2.3252 H   0  0  0  0  0  0  0  0  0  0  0  0
    5.6090    2.2366   -3.0641 H   0  0  0  0  0  0  0  0  0  0  0  0
    3.7507    3.5640   -3.3493 H   0  0  0  0  0  0  0  0  0  0  0  0
  1  3  2  0  0  0  0
  1  5  1  0  0  0  0
  1 28  1  0  0  0  0
  2  4  2  0  0  0  0
  2  6  1  0  0  0  0
  2 29  1  0  0  0  0
  3  7  1  0  0  0  0
  3 30  1  0  0  0  0
  4  8  1  0  0  0  0
  4 31  1  0  0  0  0
  5  9  2  0  0  0  0
  5 32  1  0  0  0  0
  6 10  2  0  0  0  0
  6 33  1  0  0  0  0
  7 15  2  0  0  0  0
  7 34  1  0  0  0  0
  8 16  2  0  0  0  0
  8 35  1  0  0  0  0
  9 11  1  0  0  0  0
  9 15  1  0  0  0  0
 10 12  1  0  0  0  0
 10 16  1  0  0  0  0
 11 13  1  0  0  0  0
 11 17  2  0  0  0  0
 12 14  1  0  0  0  0
 12 18  2  0  0  0  0
 13 14  1  0  0  0  0
 13 19  2  0  0  0  0
 14 20  2  0  0  0  0
 15 22  1  0  0  0  0
 16 23  1  0  0  0  0
 17 18  1  0  0  0  0
 17 22  1  0  0  0  0
 18 23  1  0  0  0  0
 19 21  1  0  0  0  0
 19 24  1  0  0  0  0
 20 24  1  0  0  0  0
 20 27  1  0  0  0  0
 21 25  1  0  0  0  0
 21 26  2  0  0  0  0
 22 36  1  0  0  0  0
 23 37  1  0  0  0  0
 24 38  1  0  0  0  0
 27 39  1  0  0  0  0
M  END
>  <name>
7-carboxy-5-hydroxy-12,13-dihydro-6H-indolo[2,3-a]pyrrolo[3,4-c]carbazole

>  <score>
1.318

>  <target>


$$$$
DB08036
 OpenBabel11241310543D

 37 42  0  0  0  0  0  0  0  0999 V2000
    7.2086   -2.9335    1.3596 C   0  0  0  0  0  0  0  0  0  0  0  0
   -0.3711    3.6165   -0.9776 C   0  0  0  0  0  0  0  0  0  0  0  0
    6.4003   -3.4467    2.3653 C   0  0  0  0  0  0  0  0  0  0  0  0
   -1.1233    3.0528    0.0466 C   0  0  0  0  0  0  0  0  0  0  0  0
    6.7595   -1.8906    0.5420 C   0  0  0  0  0  0  0  0  0  0  0  0
    0.9187    3.1535   -1.2556 C   0  0  0  0  0  0  0  0  0  0  0  0
    5.1208   -2.9361    2.5857 C   0  0  0  0  0  0  0  0  0  0  0  0
   -0.6139    2.0113    0.8251 C   0  0  0  0  0  0  0  0  0  0  0  0
    5.4695   -1.3354    0.7224 C   0  0  0  0  0  0  0  0  0  0  0  0
    1.4784    2.1001   -0.4944 C   0  0  0  0  0  0  0  0  0  0  0  0
    4.7552   -0.2562    0.0230 C   0  0  0  0  0  0  0  0  0  0  0  0
    2.7839    1.4364   -0.5736 C   0  0  0  0  0  0  0  0  0  0  0  0
    4.9583    0.6415   -1.0259 C   0  0  0  0  0  0  0  0  0  0  0  0
    3.9358    1.5372   -1.3534 C   0  0  0  0  0  0  0  0  0  0  0  0
    4.6604   -1.8900    1.7714 C   0  0  0  0  0  0  0  0  0  0  0  0
    0.6790    1.5388    0.5552 C   0  0  0  0  0  0  0  0  0  0  0  0
    3.5679   -0.3551    0.8213 C   0  0  0  0  0  0  0  0  0  0  0  0
    2.5357    0.5322    0.5079 C   0  0  0  0  0  0  0  0  0  0  0  0
    6.0800    0.8773   -1.9273 C   0  0  0  0  0  0  0  0  0  0  0  0
    4.3495    2.4048   -2.4937 C   0  0  0  0  0  0  0  0  0  0  0  0
    3.4322   -1.2485    1.8265 N   0  0  0  0  0  0  0  0  0  0  0  0
    1.3725    0.5235    1.1990 N   0  0  0  0  0  0  0  0  0  0  0  0
    5.6869    1.9137   -2.7697 N   0  0  0  0  0  0  0  0  0  0  0  0
    7.1349    0.2734   -1.9211 O   0  0  0  0  0  0  0  0  0  0  0  0
    8.2023   -3.3451    1.2041 H   0  0  0  0  0  0  0  0  0  0  0  0
   -0.7886    4.4263   -1.5702 H   0  0  0  0  0  0  0  0  0  0  0  0
    6.7678   -4.2569    2.9896 H   0  0  0  0  0  0  0  0  0  0  0  0
   -2.1243    3.4276    0.2452 H   0  0  0  0  0  0  0  0  0  0  0  0
    7.4213   -1.5177   -0.2328 H   0  0  0  0  0  0  0  0  0  0  0  0
    1.4874    3.6106   -2.0613 H   0  0  0  0  0  0  0  0  0  0  0  0
    4.4955   -3.3441    3.3744 H   0  0  0  0  0  0  0  0  0  0  0  0
   -1.2112    1.5794    1.6225 H   0  0  0  0  0  0  0  0  0  0  0  0
    3.7256    2.2561   -3.3782 H   0  0  0  0  0  0  0  0  0  0  0  0
    4.4080    3.4597   -2.2156 H   0  0  0  0  0  0  0  0  0  0  0  0
    2.6490   -1.4045    2.4476 H   0  0  0  0  0  0  0  0  0  0  0  0
    1.0885   -0.0630    1.9729 H   0  0  0  0  0  0  0  0  0  0  0  0
    6.2778    2.2892   -3.5048 H   0  0  0  0  0  0  0  0  0  0  0  0
  1  3  2  0  0  0  0
  1  5  1  0  0  0  0
  1 25  1  0  0  0  0
  2  4  2  0  0  0  0
  2  6  1  0  0  0  0
  2 26  1  0  0  0  0
  3  7  1  0  0  0  0
  3 27  1  0  0  0  0
  4  8  1  0  0  0  0
  4 28  1  0  0  0  0
  5  9  2  0  0  0  0
  5 29  1  0  0  0  0
  6 10  2  0  0  0  0
  6 30  1  0  0  0  0
  7 15  2  0  0  0  0
  7 31  1  0  0  0  0
  8 16  2  0  0  0  0
  8 32  1  0  0  0  0
  9 11  1  0  0  0  0
  9 15  1  0  0  0  0
 10 12  1  0  0  0  0
 10 16  1  0  0  0  0
 11 13  2  0  0  0  0
 11 17  1  0  0  0  0
 12 14  2  0  0  0  0
 12 18  1  0  0  0  0
 13 14  1  0  0  0  0
 13 19  1  0  0  0  0
 14 20  1  0  0  0  0
 15 21  1  0  0  0  0
 16 22  1  0  0  0  0
 17 18  2  0  0  0  0
 17 21  1  0  0  0  0
 18 22  1  0  0  0  0
 19 23  1  0  0  0  0
 19 24  2  0  0  0  0
 20 23  1  0  0  0  0
 20 33  1  0  0  0  0
 20 34  1  0  0  0  0
 21 35  1  0  0  0  0
 22 36  1  0  0  0  0
 23 37  1  0  0  0  0
M  END
>  <name>
6,7,12,13-tetrahydro-5H-indolo[2,3-a]pyrrolo[3,4-c]carbazol-5-one

>  <score>
1.305

>  <target>


$$$$
DB08049
 OpenBabel11241310543D

 29 31  0  0  0  0  0  0  0  0999 V2000
    6.0091   -3.2420    2.3821 C   0  0  0  0  0  0  0  0  0  0  0  0
    6.0751   -1.9367    2.8694 C   0  0  0  0  0  0  0  0  0  0  0  0
    5.1627   -3.5465    1.3161 C   0  0  0  0  0  0  0  0  0  0  0  0
    5.2946   -0.9359    2.2907 C   0  0  0  0  0  0  0  0  0  0  0  0
    4.3822   -2.5458    0.7374 C   0  0  0  0  0  0  0  0  0  0  0  0
    5.2690    0.5737   -1.1386 C   0  0  0  0  0  0  0  0  0  0  0  0
    5.5923    1.4191   -2.2051 C   0  0  0  0  0  0  0  0  0  0  0  0
    4.4481   -1.2404    1.2247 C   0  0  0  0  0  0  0  0  0  0  0  0
    4.0224    0.6696   -0.5062 C   0  0  0  0  0  0  0  0  0  0  0  0
    3.1245    1.6279   -0.9733 C   0  0  0  0  0  0  0  0  0  0  0  0
    4.6758    2.3698   -2.6528 C   0  0  0  0  0  0  0  0  0  0  0  0
    3.4332    2.4780   -2.0359 C   0  0  0  0  0  0  0  0  0  0  0  0
    2.4117   -0.0234    1.1563 C   0  0  0  0  0  0  0  0  0  0  0  0
    3.6308   -0.1933    0.6188 C   0  0  0  0  0  0  0  0  0  0  0  0
    1.4493    0.9839    0.6740 C   0  0  0  0  0  0  0  0  0  0  0  0
    0.3452    1.1059    1.1933 O   0  0  0  0  0  0  0  0  0  0  0  0
    1.8540    1.7796   -0.3862 O   0  0  0  0  0  0  0  0  0  0  0  0
    5.0090    3.1840   -3.6924 O   0  0  0  0  0  0  0  0  0  0  0  0
    2.5321    3.4035   -2.4671 O   0  0  0  0  0  0  0  0  0  0  0  0
    6.6178   -4.0210    2.8318 H   0  0  0  0  0  0  0  0  0  0  0  0
    6.7351   -1.6991    3.6988 H   0  0  0  0  0  0  0  0  0  0  0  0
    5.1121   -4.5625    0.9358 H   0  0  0  0  0  0  0  0  0  0  0  0
    5.3568    0.0769    2.6817 H   0  0  0  0  0  0  0  0  0  0  0  0
    3.7272   -2.7989   -0.0929 H   0  0  0  0  0  0  0  0  0  0  0  0
    6.0075   -0.1559   -0.8154 H   0  0  0  0  0  0  0  0  0  0  0  0
    6.5647    1.3290   -2.6824 H   0  0  0  0  0  0  0  0  0  0  0  0
    2.0702   -0.6323    1.9900 H   0  0  0  0  0  0  0  0  0  0  0  0
    5.9042    2.9792   -4.0054 H   0  0  0  0  0  0  0  0  0  0  0  0
    2.8999    3.9102   -3.2084 H   0  0  0  0  0  0  0  0  0  0  0  0
  1  2  2  0  0  0  0
  1  3  1  0  0  0  0
  1 20  1  0  0  0  0
  2  4  1  0  0  0  0
  2 21  1  0  0  0  0
  3  5  2  0  0  0  0
  3 22  1  0  0  0  0
  4  8  2  0  0  0  0
  4 23  1  0  0  0  0
  5  8  1  0  0  0  0
  5 24  1  0  0  0  0
  6  7  2  0  0  0  0
  6  9  1  0  0  0  0
  6 25  1  0  0  0  0
  7 11  1  0  0  0  0
  7 26  1  0  0  0  0
  8 14  1  0  0  0  0
  9 10  2  0  0  0  0
  9 14  1  0  0  0  0
 10 12  1  0  0  0  0
 10 17  1  0  0  0  0
 11 12  2  0  0  0  0
 11 18  1  0  0  0  0
 12 19  1  0  0  0  0
 13 14  2  0  0  0  0
 13 15  1  0  0  0  0
 13 27  1  0  0  0  0
 15 16  2  0  0  0  0
 15 17  1  0  0  0  0
 18 28  1  0  0  0  0
 19 29  1  0  0  0  0
M  END
>  <name>
7,8-dihydroxy-4-phenyl-2H-chromen-2-one

>  <score>
1.305

>  <target>


$$$$
DB08299
 OpenBabel11241310543D

 40 43  0  0  0  0  0  0  0  0999 V2000
   -0.8620    1.3095    0.7539 C   0  0  0  0  0  0  0  0  0  0  0  0
    4.7978    3.2034   -3.5836 C   0  0  0  0  0  0  0  0  0  0  0  0
    5.3611    2.1717   -2.8450 C   0  0  0  0  0  0  0  0  0  0  0  0
    0.4294    0.9176    0.4014 C   0  0  0  0  0  0  0  0  0  0  0  0
    5.2240   -2.2930    0.2330 C   0  0  0  0  0  0  0  0  0  0  0  0
    4.9668   -0.8946    2.1863 C   0  0  0  0  0  0  0  0  0  0  0  0
    5.6897   -3.3324    1.0383 C   0  0  0  0  0  0  0  0  0  0  0  0
    5.4325   -1.9340    2.9917 C   0  0  0  0  0  0  0  0  0  0  0  0
   -1.2663    2.6309    0.5636 C   0  0  0  0  0  0  0  0  0  0  0  0
    5.1660    0.5323   -1.0340 C   0  0  0  0  0  0  0  0  0  0  0  0
    0.9124    3.1685   -0.3316 C   0  0  0  0  0  0  0  0  0  0  0  0
    3.5187    3.6047   -3.2513 C   0  0  0  0  0  0  0  0  0  0  0  0
    4.6366    1.5751   -1.8041 C   0  0  0  0  0  0  0  0  0  0  0  0
    4.8627   -1.0742    0.8070 C   0  0  0  0  0  0  0  0  0  0  0  0
    1.3166    1.8471   -0.1413 C   0  0  0  0  0  0  0  0  0  0  0  0
    5.7939   -3.1528    2.4177 C   0  0  0  0  0  0  0  0  0  0  0  0
    3.3411    2.0551   -1.5435 C   0  0  0  0  0  0  0  0  0  0  0  0
   -0.3791    3.5603    0.0209 C   0  0  0  0  0  0  0  0  0  0  0  0
    4.3814    0.0017   -0.0261 C   0  0  0  0  0  0  0  0  0  0  0  0
    2.6577    1.4403   -0.5076 C   0  0  0  0  0  0  0  0  0  0  0  0
    6.2837   -4.2501    3.2675 C   0  0  0  0  0  0  0  0  0  0  0  0
    2.7862    3.0561   -2.2553 N   0  0  0  0  0  0  0  0  0  0  0  0
    3.1361    0.4308    0.2578 N   0  0  0  0  0  0  0  0  0  0  0  0
   -0.7904    4.9058   -0.1729 N   0  0  0  0  0  0  0  0  0  0  0  0
    6.3707   -4.0584    4.5382 O   0  0  0  0  0  0  0  0  0  0  0  0
    6.6095   -5.3659    2.7129 O   0  0  0  0  0  0  0  0  0  0  0  0
   -1.9563    5.2376    0.1509 O   0  0  0  0  0  0  0  0  0  0  0  0
    0.0236    5.7258   -0.6621 O   0  0  0  0  0  0  0  0  0  0  0  0
   -1.5529    0.5857    1.1762 H   0  0  0  0  0  0  0  0  0  0  0  0
    5.3433    3.6752   -4.3926 H   0  0  0  0  0  0  0  0  0  0  0  0
    6.3671    1.8362   -3.0856 H   0  0  0  0  0  0  0  0  0  0  0  0
    0.7298   -0.1159    0.5560 H   0  0  0  0  0  0  0  0  0  0  0  0
    5.1483   -2.4484   -0.8407 H   0  0  0  0  0  0  0  0  0  0  0  0
    4.6891    0.0496    2.6484 H   0  0  0  0  0  0  0  0  0  0  0  0
    5.9696   -4.2780    0.5809 H   0  0  0  0  0  0  0  0  0  0  0  0
    5.5109   -1.7847    4.0655 H   0  0  0  0  0  0  0  0  0  0  0  0
   -2.2756    2.9232    0.8429 H   0  0  0  0  0  0  0  0  0  0  0  0
    6.1662    0.1519   -1.2237 H   0  0  0  0  0  0  0  0  0  0  0  0
    1.6032    3.8956   -0.7548 H   0  0  0  0  0  0  0  0  0  0  0  0
    3.0298    4.4066   -3.7946 H   0  0  0  0  0  0  0  0  0  0  0  0
  1  4  2  0  0  0  0
  1  9  1  0  0  0  0
  1 29  1  0  0  0  0
  2  3  2  0  0  0  0
  2 12  1  0  0  0  0
  2 30  1  0  0  0  0
  3 13  1  0  0  0  0
  3 31  1  0  0  0  0
  4 15  1  0  0  0  0
  4 32  1  0  0  0  0
  5  7  2  0  0  0  0
  5 14  1  0  0  0  0
  5 33  1  0  0  0  0
  6  8  1  0  0  0  0
  6 14  2  0  0  0  0
  6 34  1  0  0  0  0
  7 16  1  0  0  0  0
  7 35  1  0  0  0  0
  8 16  2  0  0  0  0
  8 36  1  0  0  0  0
  9 18  2  0  0  0  0
  9 37  1  0  0  0  0
 10 13  2  0  0  0  0
 10 19  1  0  0  0  0
 10 38  1  0  0  0  0
 11 15  2  0  0  0  0
 11 18  1  0  0  0  0
 11 39  1  0  0  0  0
 12 22  2  0  0  0  0
 12 40  1  0  0  0  0
 13 17  1  0  0  0  0
 14 19  1  0  0  0  0
 15 20  1  0  0  0  0
 16 21  1  0  0  0  0
 17 20  2  0  0  0  0
 17 22  1  0  0  0  0
 18 24  1  0  0  0  0
 19 23  2  0  0  0  0
 20 23  1  0  0  0  0
 21 25  1  0  0  0  0
 21 26  2  0  0  0  0
 24 27  2  0  0  0  0
 24 28  2  0  0  0  0
M  END
>  <name>
4-[8-(3-nitrophenyl)-1,7-naphthyridin-6-yl]benzoic acid

>  <score>
1.295

>  <target>
cAMP-specific 3',5'-cyclic phosphodiesterase 4A
cAMP-specific 3',5'-cyclic phosphodiesterase 4B

$$$$
DB02923
 OpenBabel11241310543D

 24 25  0  0  0  0  0  0  0  0999 V2000
   -1.0447    2.6619    0.4041 C   0  0  0  0  0  0  0  0  0  0  0  0
   -0.5566    1.3614    0.5309 C   0  0  0  0  0  0  0  0  0  0  0  0
   -0.2442    3.6555   -0.1592 C   0  0  0  0  0  0  0  0  0  0  0  0
    4.8682    0.3905   -0.7011 C   0  0  0  0  0  0  0  0  0  0  0  0
    0.7322    1.0546    0.0945 C   0  0  0  0  0  0  0  0  0  0  0  0
    1.0447    3.3487   -0.5957 C   0  0  0  0  0  0  0  0  0  0  0  0
    3.5784    0.7139   -0.2802 C   0  0  0  0  0  0  0  0  0  0  0  0
    5.4494    1.0829   -1.7634 C   0  0  0  0  0  0  0  0  0  0  0  0
    1.5329    2.0482   -0.4689 C   0  0  0  0  0  0  0  0  0  0  0  0
    2.8695    1.7295   -0.9218 C   0  0  0  0  0  0  0  0  0  0  0  0
    4.7405    2.0985   -2.4050 C   0  0  0  0  0  0  0  0  0  0  0  0
    3.4506    2.4219   -1.9841 C   0  0  0  0  0  0  0  0  0  0  0  0
    5.3208    2.7660   -3.4413 O   0  0  0  0  0  0  0  0  0  0  0  0
    2.7693    3.4182   -2.6217 O   0  0  0  0  0  0  0  0  0  0  0  0
   -2.0488    2.9001    0.7425 H   0  0  0  0  0  0  0  0  0  0  0  0
   -1.1805    0.5873    0.9680 H   0  0  0  0  0  0  0  0  0  0  0  0
   -0.6241    4.6680   -0.2595 H   0  0  0  0  0  0  0  0  0  0  0  0
    5.4204   -0.4003   -0.2016 H   0  0  0  0  0  0  0  0  0  0  0  0
    1.0982    0.0359    0.2000 H   0  0  0  0  0  0  0  0  0  0  0  0
    1.6570    4.1335   -1.0335 H   0  0  0  0  0  0  0  0  0  0  0  0
    3.1401    0.1643    0.5496 H   0  0  0  0  0  0  0  0  0  0  0  0
    6.4546    0.8260   -2.0863 H   0  0  0  0  0  0  0  0  0  0  0  0
    6.2122    2.4204   -3.6052 H   0  0  0  0  0  0  0  0  0  0  0  0
    3.3138    3.7921   -3.3309 H   0  0  0  0  0  0  0  0  0  0  0  0
  1  2  2  0  0  0  0
  1  3  1  0  0  0  0
  1 15  1  0  0  0  0
  2  5  1  0  0  0  0
  2 16  1  0  0  0  0
  3  6  2  0  0  0  0
  3 17  1  0  0  0  0
  4  7  2  0  0  0  0
  4  8  1  0  0  0  0
  4 18  1  0  0  0  0
  5  9  2  0  0  0  0
  5 19  1  0  0  0  0
  6  9  1  0  0  0  0
  6 20  1  0  0  0  0
  7 10  1  0  0  0  0
  7 21  1  0  0  0  0
  8 11  2  0  0  0  0
  8 22  1  0  0  0  0
  9 10  1  0  0  0  0
 10 12  2  0  0  0  0
 11 12  1  0  0  0  0
 11 13  1  0  0  0  0
 12 14  1  0  0  0  0
 13 23  1  0  0  0  0
 14 24  1  0  0  0  0
M  END
>  <name>
Biphenyl-2,3-Diol

>  <score>
1.293

>  <target>
Biphenyl-2,3-diol 1,2-dioxygenase
Biphenyl-2,3-diol 1,2-dioxygenase

$$$$
DB08178
 OpenBabel11241310543D

 29 31  0  0  0  0  0  0  0  0999 V2000
    5.1758    1.9248   -2.5109 C   0  0  0  0  0  0  0  0  0  0  0  0
    1.1375    3.0865   -0.3645 C   0  0  0  0  0  0  0  0  0  0  0  0
    6.0297    0.9501   -2.0126 C   0  0  0  0  0  0  0  0  0  0  0  0
   -0.1168    3.6581   -0.2996 C   0  0  0  0  0  0  0  0  0  0  0  0
    2.7614    0.0503    0.8817 C   0  0  0  0  0  0  0  0  0  0  0  0
    3.5911    1.2395   -0.8493 C   0  0  0  0  0  0  0  0  0  0  0  0
    2.4671    1.0694    0.0016 C   0  0  0  0  0  0  0  0  0  0  0  0
    3.9223    2.0825   -1.9223 C   0  0  0  0  0  0  0  0  0  0  0  0
    1.2132    1.7665    0.0306 C   0  0  0  0  0  0  0  0  0  0  0  0
    4.5428    0.3051   -0.4515 C   0  0  0  0  0  0  0  0  0  0  0  0
   -1.0155    1.7194    0.4756 C   0  0  0  0  0  0  0  0  0  0  0  0
    3.5148    3.8263   -3.4872 C   0  0  0  0  0  0  0  0  0  0  0  0
    5.7644    0.1117   -0.9838 N   0  0  0  0  0  0  0  0  0  0  0  0
   -1.2192    3.0013    0.1172 N   0  0  0  0  0  0  0  0  0  0  0  0
    0.1529    1.0499    0.4579 N   0  0  0  0  0  0  0  0  0  0  0  0
    4.0228   -0.4055    0.5981 N   0  0  0  0  0  0  0  0  0  0  0  0
   -2.1477    1.0009    0.9184 N   0  0  0  0  0  0  0  0  0  0  0  0
    3.0616    3.0342   -2.3940 O   0  0  0  0  0  0  0  0  0  0  0  0
    5.4830    2.5495   -3.3434 H   0  0  0  0  0  0  0  0  0  0  0  0
    1.9972    3.6500   -0.7054 H   0  0  0  0  0  0  0  0  0  0  0  0
    7.0108    0.8134   -2.4599 H   0  0  0  0  0  0  0  0  0  0  0  0
   -0.2750    4.6910   -0.5907 H   0  0  0  0  0  0  0  0  0  0  0  0
    2.1911   -0.3951    1.6858 H   0  0  0  0  0  0  0  0  0  0  0  0
    2.7381    4.5430   -3.7655 H   0  0  0  0  0  0  0  0  0  0  0  0
    3.7483    3.1783   -4.3357 H   0  0  0  0  0  0  0  0  0  0  0  0
    4.4150    4.3670   -3.1855 H   0  0  0  0  0  0  0  0  0  0  0  0
    4.4977   -1.1503    1.0888 H   0  0  0  0  0  0  0  0  0  0  0  0
   -3.0248    1.4735    0.9926 H   0  0  0  0  0  0  0  0  0  0  0  0
   -2.0324    0.0614    1.2383 H   0  0  0  0  0  0  0  0  0  0  0  0
  1  3  2  0  0  0  0
  1  8  1  0  0  0  0
  1 19  1  0  0  0  0
  2  4  2  0  0  0  0
  2  9  1  0  0  0  0
  2 20  1  0  0  0  0
  3 13  1  0  0  0  0
  3 21  1  0  0  0  0
  4 14  1  0  0  0  0
  4 22  1  0  0  0  0
  5  7  2  0  0  0  0
  5 16  1  0  0  0  0
  5 23  1  0  0  0  0
  6  7  1  0  0  0  0
  6  8  2  0  0  0  0
  6 10  1  0  0  0  0
  7  9  1  0  0  0  0
  8 18  1  0  0  0  0
  9 15  2  0  0  0  0
 10 13  2  0  0  0  0
 10 16  1  0  0  0  0
 11 14  2  0  0  0  0
 11 15  1  0  0  0  0
 11 17  1  0  0  0  0
 12 18  1  0  0  0  0
 12 24  1  0  0  0  0
 12 25  1  0  0  0  0
 12 26  1  0  0  0  0
 16 27  1  0  0  0  0
 17 28  1  0  0  0  0
 17 29  1  0  0  0  0
M  END
>  <name>
4-(4-methoxy-1H-pyrrolo[2,3-b]pyridin-3-yl)pyrimidin-2-amine

>  <score>
1.292

>  <target>
Cell division protein kinase 2

$$$$
DB03509
 OpenBabel11241310543D

 30 32  0  0  0  0  0  0  0  0999 V2000
    6.9069    0.0423   -1.5468 C   0  0  0  0  0  0  0  0  0  0  0  0
   -0.1093    1.2620   -0.3207 C   0  0  0  0  0  0  0  0  0  0  0  0
    0.9833    3.3741    0.1065 C   0  0  0  0  0  0  0  0  0  0  0  0
    6.5398    1.0741   -2.3979 C   0  0  0  0  0  0  0  0  0  0  0  0
    6.0129   -0.3951   -0.5712 C   0  0  0  0  0  0  0  0  0  0  0  0
   -1.3527    1.8889   -0.2398 C   0  0  0  0  0  0  0  0  0  0  0  0
   -0.2600    4.0009    0.1874 C   0  0  0  0  0  0  0  0  0  0  0  0
    2.7052    0.3380    0.6096 C   0  0  0  0  0  0  0  0  0  0  0  0
    1.0588    2.0046   -0.1475 C   0  0  0  0  0  0  0  0  0  0  0  0
    5.2820    1.6598   -2.2657 C   0  0  0  0  0  0  0  0  0  0  0  0
    4.7536    0.1833   -0.4308 C   0  0  0  0  0  0  0  0  0  0  0  0
    4.3813    1.2301   -1.2940 C   0  0  0  0  0  0  0  0  0  0  0  0
   -1.4281    3.2583    0.0142 C   0  0  0  0  0  0  0  0  0  0  0  0
    2.3429    1.3569   -0.2305 C   0  0  0  0  0  0  0  0  0  0  0  0
    4.9311    2.7413   -3.1796 C   0  0  0  0  0  0  0  0  0  0  0  0
    3.9086   -0.2562    0.5183 N   0  0  0  0  0  0  0  0  0  0  0  0
    3.1734    1.8110   -1.1863 N   0  0  0  0  0  0  0  0  0  0  0  0
    5.8781    3.1171   -4.1249 N   0  0  0  0  0  0  0  0  0  0  0  0
    3.8339    3.3166   -3.1053 O   0  0  0  0  0  0  0  0  0  0  0  0
   -2.9628    4.0309    0.1154 Cl  0  0  0  0  0  0  0  0  0  0  0  0
    7.8836   -0.4226   -1.6389 H   0  0  0  0  0  0  0  0  0  0  0  0
   -0.0669    0.1937   -0.5192 H   0  0  0  0  0  0  0  0  0  0  0  0
    1.8849    3.9664    0.2447 H   0  0  0  0  0  0  0  0  0  0  0  0
    7.2360    1.4155   -3.1591 H   0  0  0  0  0  0  0  0  0  0  0  0
    6.3138   -1.2057    0.0894 H   0  0  0  0  0  0  0  0  0  0  0  0
   -2.2552    1.2979   -0.3749 H   0  0  0  0  0  0  0  0  0  0  0  0
   -0.3038    5.0687    0.3871 H   0  0  0  0  0  0  0  0  0  0  0  0
    2.0529   -0.0440    1.3863 H   0  0  0  0  0  0  0  0  0  0  0  0
    6.7712    2.6370   -4.1522 H   0  0  0  0  0  0  0  0  0  0  0  0
    5.6936    3.8625   -4.7885 H   0  0  0  0  0  0  0  0  0  0  0  0
  1  4  2  0  0  0  0
  1  5  1  0  0  0  0
  1 21  1  0  0  0  0
  2  6  2  0  0  0  0
  2  9  1  0  0  0  0
  2 22  1  0  0  0  0
  3  7  1  0  0  0  0
  3  9  2  0  0  0  0
  3 23  1  0  0  0  0
  4 10  1  0  0  0  0
  4 24  1  0  0  0  0
  5 11  2  0  0  0  0
  5 25  1  0  0  0  0
  6 13  1  0  0  0  0
  6 26  1  0  0  0  0
  7 13  2  0  0  0  0
  7 27  1  0  0  0  0
  8 14  1  0  0  0  0
  8 16  2  0  0  0  0
  8 28  1  0  0  0  0
  9 14  1  0  0  0  0
 10 12  2  0  0  0  0
 10 15  1  0  0  0  0
 11 12  1  0  0  0  0
 11 16  1  0  0  0  0
 12 17  1  0  0  0  0
 13 20  1  0  0  0  0
 14 17  2  0  0  0  0
 15 18  1  0  0  0  0
 15 19  2  0  0  0  0
 18 29  1  0  0  0  0
 18 30  1  0  0  0  0
M  END
>  <name>
2-(4-Chlorophenyl)-5-Quinoxalinecarboxamide

>  <score>
1.29

>  <target>


$$$$
DB04608
 OpenBabel11241310543D

 37 41  0  0  0  0  0  0  0  0999 V2000
   -1.2160    3.6006   -0.4656 C   0  0  0  0  0  0  0  0  0  0  0  0
    0.0470    4.1548   -0.3563 C   0  0  0  0  0  0  0  0  0  0  0  0
   -1.3872    2.2312   -0.3700 C   0  0  0  0  0  0  0  0  0  0  0  0
    1.1441    3.3433   -0.1517 C   0  0  0  0  0  0  0  0  0  0  0  0
   -0.2970    1.4089   -0.1713 C   0  0  0  0  0  0  0  0  0  0  0  0
    5.3913   -3.2728    2.7733 C   0  0  0  0  0  0  0  0  0  0  0  0
    6.6666   -3.6152    2.3788 C   0  0  0  0  0  0  0  0  0  0  0  0
    6.6227   -1.9275    0.6685 C   0  0  0  0  0  0  0  0  0  0  0  0
    2.1246    0.1250    1.1734 C   0  0  0  0  0  0  0  0  0  0  0  0
    5.3297   -1.5781    1.0570 C   0  0  0  0  0  0  0  0  0  0  0  0
    4.3676   -0.5713    0.5794 C   0  0  0  0  0  0  0  0  0  0  0  0
    0.9779    1.9620   -0.0551 C   0  0  0  0  0  0  0  0  0  0  0  0
    2.1518    1.0853    0.1641 C   0  0  0  0  0  0  0  0  0  0  0  0
    4.4019    0.3880   -0.4336 C   0  0  0  0  0  0  0  0  0  0  0  0
    3.2874    1.2220   -0.6434 C   0  0  0  0  0  0  0  0  0  0  0  0
    4.7081   -2.2526    2.1191 C   0  0  0  0  0  0  0  0  0  0  0  0
    3.2187   -0.7024    1.3881 C   0  0  0  0  0  0  0  0  0  0  0  0
    7.2839   -2.9475    1.3264 C   0  0  0  0  0  0  0  0  0  0  0  0
    5.4037    0.7919   -1.4387 C   0  0  0  0  0  0  0  0  0  0  0  0
    3.6474    2.1043   -1.7672 C   0  0  0  0  0  0  0  0  0  0  0  0
    3.4452   -1.7133    2.3011 N   0  0  0  0  0  0  0  0  0  0  0  0
    4.8910    1.7941   -2.1753 N   0  0  0  0  0  0  0  0  0  0  0  0
    6.5065    0.3015   -1.5780 O   0  0  0  0  0  0  0  0  0  0  0  0
    2.9390    2.9679   -2.2457 O   0  0  0  0  0  0  0  0  0  0  0  0
    8.5429   -3.2952    0.9476 O   0  0  0  0  0  0  0  0  0  0  0  0
   -2.0716    4.2398   -0.6256 H   0  0  0  0  0  0  0  0  0  0  0  0
    0.1744    5.2246   -0.4310 H   0  0  0  0  0  0  0  0  0  0  0  0
   -2.3756    1.8044   -0.4557 H   0  0  0  0  0  0  0  0  0  0  0  0
    2.1295    3.7771   -0.0662 H   0  0  0  0  0  0  0  0  0  0  0  0
   -0.4319    0.3399   -0.0972 H   0  0  0  0  0  0  0  0  0  0  0  0
    4.9212   -3.7978    3.5918 H   0  0  0  0  0  0  0  0  0  0  0  0
    7.1908   -4.4086    2.8908 H   0  0  0  0  0  0  0  0  0  0  0  0
    7.1020   -1.4091   -0.1487 H   0  0  0  0  0  0  0  0  0  0  0  0
    1.2459    0.0232    1.7930 H   0  0  0  0  0  0  0  0  0  0  0  0
    2.8102   -2.0044    2.9740 H   0  0  0  0  0  0  0  0  0  0  0  0
    5.3563    2.2347   -2.9034 H   0  0  0  0  0  0  0  0  0  0  0  0
    9.1512   -2.7536    1.4688 H   0  0  0  0  0  0  0  0  0  0  0  0
  1  2  2  0  0  0  0
  1  3  1  0  0  0  0
  1 26  1  0  0  0  0
  2  4  1  0  0  0  0
  2 27  1  0  0  0  0
  3  5  2  0  0  0  0
  3 28  1  0  0  0  0
  4 12  2  0  0  0  0
  4 29  1  0  0  0  0
  5 12  1  0  0  0  0
  5 30  1  0  0  0  0
  6  7  2  0  0  0  0
  6 16  1  0  0  0  0
  6 31  1  0  0  0  0
  7 18  1  0  0  0  0
  7 32  1  0  0  0  0
  8 10  1  0  0  0  0
  8 18  2  0  0  0  0
  8 33  1  0  0  0  0
  9 13  2  0  0  0  0
  9 17  1  0  0  0  0
  9 34  1  0  0  0  0
 10 11  1  0  0  0  0
 10 16  2  0  0  0  0
 11 14  1  0  0  0  0
 11 17  2  0  0  0  0
 12 13  1  0  0  0  0
 13 15  1  0  0  0  0
 14 15  2  0  0  0  0
 14 19  1  0  0  0  0
 15 20  1  0  0  0  0
 16 21  1  0  0  0  0
 17 21  1  0  0  0  0
 18 25  1  0  0  0  0
 19 22  1  0  0  0  0
 19 23  2  0  0  0  0
 20 22  1  0  0  0  0
 20 24  2  0  0  0  0
 21 35  1  0  0  0  0
 22 36  1  0  0  0  0
 25 37  1  0  0  0  0
M  END
>  <name>
9-HYDROXY-4-PHENYL-6H-PYRROLO[3,4-C]CARBAZOLE-1,3-DIONE

>  <score>
1.289

>  <target>


$$$$
DB08560
 OpenBabel11241310543D

 40 43  0  0  0  0  0  0  0  0999 V2000
    6.8223    4.9965   -0.7812 C   0  0  0  0  0  0  0  0  0  0  0  0
   -0.3223    3.4983    0.2323 C   0  0  0  0  0  0  0  0  0  0  0  0
    5.6837   -2.0312    0.3802 C   0  0  0  0  0  0  0  0  0  0  0  0
    4.4816   -1.4970    2.4067 C   0  0  0  0  0  0  0  0  0  0  0  0
    8.1939    4.9875   -0.5277 C   0  0  0  0  0  0  0  0  0  0  0  0
    6.3554   -3.0548    1.0484 C   0  0  0  0  0  0  0  0  0  0  0  0
    5.1533   -2.5207    3.0750 C   0  0  0  0  0  0  0  0  0  0  0  0
    6.2149    3.8884   -1.3719 C   0  0  0  0  0  0  0  0  0  0  0  0
    1.0509    3.1185    0.2291 C   0  0  0  0  0  0  0  0  0  0  0  0
    8.3508    2.7624   -1.4557 C   0  0  0  0  0  0  0  0  0  0  0  0
    3.5533    1.3816   -0.9711 C   0  0  0  0  0  0  0  0  0  0  0  0
   -1.1564    2.4260    0.0038 C   0  0  0  0  0  0  0  0  0  0  0  0
    4.7468   -1.2522    1.0593 C   0  0  0  0  0  0  0  0  0  0  0  0
    6.0902   -3.2996    2.3957 C   0  0  0  0  0  0  0  0  0  0  0  0
    8.9581    3.8704   -0.8649 C   0  0  0  0  0  0  0  0  0  0  0  0
    6.9792    2.7714   -1.7092 C   0  0  0  0  0  0  0  0  0  0  0  0
    2.5199    1.0884   -0.0613 C   0  0  0  0  0  0  0  0  0  0  0  0
    1.2142    1.7700   -0.0013 C   0  0  0  0  0  0  0  0  0  0  0  0
    4.5563    0.5011   -0.6468 C   0  0  0  0  0  0  0  0  0  0  0  0
    2.8369    0.0989    0.7779 N   0  0  0  0  0  0  0  0  0  0  0  0
    5.7521    0.4067   -1.2489 N   0  0  0  0  0  0  0  0  0  0  0  0
    4.0809   -0.2375    0.3967 N   0  0  0  0  0  0  0  0  0  0  0  0
    5.0938    1.9420   -3.2196 O   0  0  0  0  0  0  0  0  0  0  0  0
    7.2652    0.8002   -3.3059 O   0  0  0  0  0  0  0  0  0  0  0  0
    6.7351   -4.2827    3.0374 F   0  0  0  0  0  0  0  0  0  0  0  0
   10.2753    3.8622   -0.6216 F   0  0  0  0  0  0  0  0  0  0  0  0
   -0.2840    0.9684   -0.2130 S   0  0  0  0  0  0  0  0  0  0  0  0
    6.1936    1.3378   -2.4705 S   0  0  0  0  0  0  0  0  0  0  0  0
    6.2278    5.8665   -0.5186 H   0  0  0  0  0  0  0  0  0  0  0  0
   -0.6801    4.5068    0.3946 H   0  0  0  0  0  0  0  0  0  0  0  0
    5.9008   -1.8510   -0.6699 H   0  0  0  0  0  0  0  0  0  0  0  0
    3.7531   -0.8981    2.9479 H   0  0  0  0  0  0  0  0  0  0  0  0
    8.6669    5.8502   -0.0679 H   0  0  0  0  0  0  0  0  0  0  0  0
    7.0854   -3.6610    0.5203 H   0  0  0  0  0  0  0  0  0  0  0  0
    4.9467   -2.7124    4.1237 H   0  0  0  0  0  0  0  0  0  0  0  0
    5.1454    3.9058   -1.5642 H   0  0  0  0  0  0  0  0  0  0  0  0
    1.8719    3.8067    0.3891 H   0  0  0  0  0  0  0  0  0  0  0  0
    8.9565    1.8979   -1.7145 H   0  0  0  0  0  0  0  0  0  0  0  0
    3.5651    2.1297   -1.7526 H   0  0  0  0  0  0  0  0  0  0  0  0
   -2.2360    2.4284   -0.0456 H   0  0  0  0  0  0  0  0  0  0  0  0
  1  5  2  0  0  0  0
  1  8  1  0  0  0  0
  1 29  1  0  0  0  0
  2  9  1  0  0  0  0
  2 12  2  0  0  0  0
  2 30  1  0  0  0  0
  3  6  2  0  0  0  0
  3 13  1  0  0  0  0
  3 31  1  0  0  0  0
  4  7  1  0  0  0  0
  4 13  2  0  0  0  0
  4 32  1  0  0  0  0
  5 15  1  0  0  0  0
  5 33  1  0  0  0  0
  6 14  1  0  0  0  0
  6 34  1  0  0  0  0
  7 14  2  0  0  0  0
  7 35  1  0  0  0  0
  8 16  2  0  0  0  0
  8 36  1  0  0  0  0
  9 18  2  0  0  0  0
  9 37  1  0  0  0  0
 10 15  2  0  0  0  0
 10 16  1  0  0  0  0
 10 38  1  0  0  0  0
 11 17  1  0  0  0  0
 11 19  2  0  0  0  0
 11 39  1  0  0  0  0
 12 27  1  0  0  0  0
 12 40  1  0  0  0  0
 13 22  1  0  0  0  0
 14 25  1  0  0  0  0
 15 26  1  0  0  0  0
 16 28  1  0  0  0  0
 17 18  1  0  0  0  0
 17 20  2  0  0  0  0
 18 27  1  0  0  0  0
 19 21  1  0  0  0  0
 19 22  1  0  0  0  0
 20 22  1  0  0  0  0
 21 28  1  0  0  0  0
 23 28  2  0  0  0  0
 24 28  2  0  0  0  0
M  END
>  <name>
3-FLUORO-N-[1-(4-FLUOROPHENYL)-3-(2-THIENYL)-1H-PYRAZOL-5-YL]BENZENESULFONAMIDE

>  <score>
1.285

>  <target>


$$$$
DB07161
 OpenBabel11241310543D

 27 29  0  0  0  0  0  0  0  0999 V2000
    5.9264   -3.3288    2.5221 C   0  0  0  0  0  0  0  0  0  0  0  0
    6.1031   -2.0049    2.9243 C   0  0  0  0  0  0  0  0  0  0  0  0
    5.1936   -3.6159    1.3705 C   0  0  0  0  0  0  0  0  0  0  0  0
    5.5469   -0.9682    2.1750 C   0  0  0  0  0  0  0  0  0  0  0  0
    4.6374   -2.5792    0.6212 C   0  0  0  0  0  0  0  0  0  0  0  0
    2.9470    0.2681    0.5376 C   0  0  0  0  0  0  0  0  0  0  0  0
    2.3576    1.3057   -0.1922 C   0  0  0  0  0  0  0  0  0  0  0  0
    4.9829    0.3991   -0.7893 C   0  0  0  0  0  0  0  0  0  0  0  0
    4.4046    1.4425   -1.5313 C   0  0  0  0  0  0  0  0  0  0  0  0
    4.8140   -1.2553    1.0234 C   0  0  0  0  0  0  0  0  0  0  0  0
    4.2371   -0.1789    0.2457 C   0  0  0  0  0  0  0  0  0  0  0  0
    3.1181    1.8683   -1.2196 C   0  0  0  0  0  0  0  0  0  0  0  0
    4.7934    2.2648   -2.6106 C   0  0  0  0  0  0  0  0  0  0  0  0
    3.8481    3.1392   -2.9627 N   0  0  0  0  0  0  0  0  0  0  0  0
    2.8479    2.8764   -2.1052 N   0  0  0  0  0  0  0  0  0  0  0  0
    6.0125    2.1437   -3.1988 N   0  0  0  0  0  0  0  0  0  0  0  0
    6.3610   -4.1357    3.1047 H   0  0  0  0  0  0  0  0  0  0  0  0
    6.6751   -1.7811    3.8200 H   0  0  0  0  0  0  0  0  0  0  0  0
    5.0568   -4.6463    1.0560 H   0  0  0  0  0  0  0  0  0  0  0  0
    5.6938    0.0587    2.5015 H   0  0  0  0  0  0  0  0  0  0  0  0
    4.0692   -2.8183   -0.2746 H   0  0  0  0  0  0  0  0  0  0  0  0
    2.3757   -0.1879    1.3443 H   0  0  0  0  0  0  0  0  0  0  0  0
    1.3559    1.6543    0.0329 H   0  0  0  0  0  0  0  0  0  0  0  0
    5.9872    0.0520   -1.0172 H   0  0  0  0  0  0  0  0  0  0  0  0
    2.0001    3.4250   -2.1775 H   0  0  0  0  0  0  0  0  0  0  0  0
    6.7155    1.4822   -2.8514 H   0  0  0  0  0  0  0  0  0  0  0  0
    6.3124    2.7727   -3.9518 H   0  0  0  0  0  0  0  0  0  0  0  0
  1  2  2  0  0  0  0
  1  3  1  0  0  0  0
  1 17  1  0  0  0  0
  2  4  1  0  0  0  0
  2 18  1  0  0  0  0
  3  5  2  0  0  0  0
  3 19  1  0  0  0  0
  4 10  2  0  0  0  0
  4 20  1  0  0  0  0
  5 10  1  0  0  0  0
  5 21  1  0  0  0  0
  6  7  2  0  0  0  0
  6 11  1  0  0  0  0
  6 22  1  0  0  0  0
  7 12  1  0  0  0  0
  7 23  1  0  0  0  0
  8  9  1  0  0  0  0
  8 11  2  0  0  0  0
  8 24  1  0  0  0  0
  9 12  2  0  0  0  0
  9 13  1  0  0  0  0
 10 11  1  0  0  0  0
 12 15  1  0  0  0  0
 13 14  2  0  0  0  0
 13 16  1  0  0  0  0
 14 15  1  0  0  0  0
 15 25  1  0  0  0  0
 16 26  1  0  0  0  0
 16 27  1  0  0  0  0
M  END
>  <name>
5-phenyl-1H-indazol-3-amine

>  <score>
1.281

>  <target>


$$$$
DB04669
 OpenBabel11241310543D

 38 41  0  0  1  0  0  0  0  0999 V2000
    6.1037   -3.2978    1.1166 C   0  0  0  0  0  0  0  0  0  0  0  0
    5.9059   -2.2201    0.2533 C   0  0  0  0  0  0  0  0  0  0  0  0
    5.6558   -3.2261    2.4357 C   0  0  0  0  0  0  0  0  0  0  0  0
   -0.3863    3.5072   -0.5128 C   0  0  0  0  0  0  0  0  0  0  0  0
   -0.0559    1.4667    0.7169 C   0  0  0  0  0  0  0  0  0  0  0  0
    4.8125   -0.9990    2.0284 C   0  0  0  0  0  0  0  0  0  0  0  0
    3.9365    0.8672    0.0105 C   0  0  0  0  0  0  0  0  0  0  0  0
   -1.7069    3.1254   -0.6864 C   0  0  0  0  0  0  0  0  0  0  0  0
   -1.3913    1.1764    0.4883 C   0  0  0  0  0  0  0  0  0  0  0  0
    6.0945    2.6387   -3.6038 C   0  0  0  0  0  0  0  0  0  0  0  0
    5.2604   -1.0707    0.7093 C   0  0  0  0  0  0  0  0  0  0  0  0
    0.4483    2.6565    0.2034 C   0  0  0  0  0  0  0  0  0  0  0  0
    5.0103   -2.0767    2.8916 C   0  0  0  0  0  0  0  0  0  0  0  0
    5.0550    0.0486   -0.1875 C   0  0  1  0  0  0  0  0  0  0  0  0
    3.7425    1.9346   -0.8476 C   0  0  2  0  0  0  0  0  0  0  0  0
    5.8518    1.1866   -1.9886 C   0  0  2  0  0  0  0  0  0  0  0  0
    1.8886    3.0207    0.4208 C   0  0  0  0  0  0  0  0  0  0  0  0
   -2.2327    1.9777   -0.2026 N   0  0  0  0  0  0  0  0  0  0  0  0
    6.6710    1.5537   -3.0664 N   0  0  0  0  0  0  0  0  0  0  0  0
    6.0287    0.1464   -1.1416 N   0  0  0  0  0  0  0  0  0  0  0  0
    4.9443    2.9831   -2.9197 N   0  0  0  0  0  0  0  0  0  0  0  0
    4.7795    2.0451   -1.8696 N   0  0  1  0  0  0  0  0  0  0  0  0
    2.6791    2.8273   -0.7682 N   0  0  0  0  0  0  0  0  0  0  0  0
    4.4051   -1.9796    4.6796 Br  0  0  0  0  0  0  0  0  0  0  0  0
    6.6064   -4.1927    0.7618 H   0  0  0  0  0  0  0  0  0  0  0  0
    6.2595   -2.2918   -0.7724 H   0  0  0  0  0  0  0  0  0  0  0  0
    5.8179   -4.0749    3.0954 H   0  0  0  0  0  0  0  0  0  0  0  0
   -0.0234    4.4418   -0.9270 H   0  0  0  0  0  0  0  0  0  0  0  0
    0.5700    0.7829    1.2797 H   0  0  0  0  0  0  0  0  0  0  0  0
    4.3090   -0.1016    2.3831 H   0  0  0  0  0  0  0  0  0  0  0  0
    3.2351    0.6732    0.8170 H   0  0  0  0  0  0  0  0  0  0  0  0
   -2.3985    3.7532   -1.2386 H   0  0  0  0  0  0  0  0  0  0  0  0
   -1.8330    0.2608    0.8678 H   0  0  0  0  0  0  0  0  0  0  0  0
    6.4521    3.1965   -4.4565 H   0  0  0  0  0  0  0  0  0  0  0  0
    1.9804    4.0705    0.7200 H   0  0  0  0  0  0  0  0  0  0  0  0
    2.3308    2.4152    1.2190 H   0  0  0  0  0  0  0  0  0  0  0  0
    4.3052    3.7482   -3.0932 H   0  0  0  0  0  0  0  0  0  0  0  0
    2.4509    3.3673   -1.5928 H   0  0  0  0  0  0  0  0  0  0  0  0
  1  2  2  0  0  0  0
  1  3  1  0  0  0  0
  1 25  1  0  0  0  0
  2 11  1  0  0  0  0
  2 26  1  0  0  0  0
  3 13  2  0  0  0  0
  3 27  1  0  0  0  0
  4  8  2  0  0  0  0
  4 12  1  0  0  0  0
  4 28  1  0  0  0  0
  5  9  1  0  0  0  0
  5 12  2  0  0  0  0
  5 29  1  0  0  0  0
  6 11  2  0  0  0  0
  6 13  1  0  0  0  0
  6 30  1  0  0  0  0
  7 14  1  0  0  0  0
  7 15  1  0  0  0  0
  7 31  1  0  0  0  0
  8 18  1  0  0  0  0
  8 32  1  0  0  0  0
  9 18  2  0  0  0  0
  9 33  1  0  0  0  0
 10 19  2  0  0  0  0
 10 21  1  0  0  0  0
 10 34  1  0  0  0  0
 12 17  1  0  0  0  0
 13 24  1  0  0  0  0
 14 11  1  6  0  0  0
 14 20  1  0  0  0  0
 15 22  1  0  0  0  0
 15 23  1  1  0  0  0
 16 19  1  6  0  0  0
 16 20  1  0  0  0  0
 16 22  1  0  0  0  0
 17 23  1  0  0  0  0
 17 35  1  0  0  0  0
 17 36  1  0  0  0  0
 21 37  1  0  0  0  0
 22 21  1  6  0  0  0
 23 38  1  0  0  0  0
M  END
>  <name>
TRIAZOLOPYRIMIDINE

>  <score>
1.28

>  <target>


$$$$
DB07229
 OpenBabel11241310543D

 47 50  0  0  0  0  0  0  0  0999 V2000
   -1.3162    2.7670    0.4536 C   0  0  0  0  0  0  0  0  0  0  0  0
   -1.1371    1.4007    0.3343 C   0  0  0  0  0  0  0  0  0  0  0  0
   -0.2330    3.6225    0.3623 C   0  0  0  0  0  0  0  0  0  0  0  0
    0.1250    0.8833    0.1238 C   0  0  0  0  0  0  0  0  0  0  0  0
    1.0344    3.1157    0.1581 C   0  0  0  0  0  0  0  0  0  0  0  0
    6.0357   -4.4965    4.4594 C   0  0  0  0  0  0  0  0  0  0  0  0
    5.3513   -3.3280    4.2945 C   0  0  0  0  0  0  0  0  0  0  0  0
    6.5603   -4.5641    2.0991 C   0  0  0  0  0  0  0  0  0  0  0  0
    5.5775   -2.5220    0.7691 C   0  0  0  0  0  0  0  0  0  0  0  0
    3.3863    1.7164   -1.2014 C   0  0  0  0  0  0  0  0  0  0  0  0
    5.1317    0.1667   -0.6300 C   0  0  0  0  0  0  0  0  0  0  0  0
    5.8619   -3.3697    1.9268 C   0  0  0  0  0  0  0  0  0  0  0  0
    1.2200    1.7404    0.0314 C   0  0  0  0  0  0  0  0  0  0  0  0
    2.5790    1.1902   -0.1948 C   0  0  0  0  0  0  0  0  0  0  0  0
    4.3335   -0.3685    0.3812 C   0  0  0  0  0  0  0  0  0  0  0  0
    6.6468   -5.1276    3.3679 C   0  0  0  0  0  0  0  0  0  0  0  0
    5.2512   -2.7450    3.0336 C   0  0  0  0  0  0  0  0  0  0  0  0
    4.6560    1.2044   -1.4148 C   0  0  0  0  0  0  0  0  0  0  0  0
    3.0490    0.1411    0.5967 C   0  0  0  0  0  0  0  0  0  0  0  0
    4.8417   -1.4754    1.2189 C   0  0  0  0  0  0  0  0  0  0  0  0
    7.3890   -6.3903    3.5659 C   0  0  0  0  0  0  0  0  0  0  0  0
    4.6827    2.7625   -3.0230 C   0  0  0  0  0  0  0  0  0  0  0  0
    4.6415   -1.6009    2.5745 N   0  0  0  0  0  0  0  0  0  0  0  0
    7.4585   -7.2837    2.5802 N   0  0  0  0  0  0  0  0  0  0  0  0
    7.9886   -6.6349    4.7301 N   0  0  0  0  0  0  0  0  0  0  0  0
    2.2660   -0.3759    1.5792 O   0  0  0  0  0  0  0  0  0  0  0  0
    5.4386    1.7230   -2.3986 O   0  0  0  0  0  0  0  0  0  0  0  0
   -2.3055    3.1676    0.6183 H   0  0  0  0  0  0  0  0  0  0  0  0
   -1.9865    0.7375    0.4057 H   0  0  0  0  0  0  0  0  0  0  0  0
   -0.3787    4.6885    0.4554 H   0  0  0  0  0  0  0  0  0  0  0  0
    0.2636   -0.1837    0.0305 H   0  0  0  0  0  0  0  0  0  0  0  0
    1.8796    3.7845    0.0873 H   0  0  0  0  0  0  0  0  0  0  0  0
    6.1071   -4.9399    5.4416 H   0  0  0  0  0  0  0  0  0  0  0  0
    4.8848   -2.8533    5.1450 H   0  0  0  0  0  0  0  0  0  0  0  0
    7.0305   -5.0471    1.2552 H   0  0  0  0  0  0  0  0  0  0  0  0
    5.8934   -2.6960   -0.2489 H   0  0  0  0  0  0  0  0  0  0  0  0
    3.0215    2.5257   -1.8166 H   0  0  0  0  0  0  0  0  0  0  0  0
    6.1222   -0.2283   -0.8010 H   0  0  0  0  0  0  0  0  0  0  0  0
    3.7651    2.3455   -3.4380 H   0  0  0  0  0  0  0  0  0  0  0  0
    4.4339    3.5246   -2.2844 H   0  0  0  0  0  0  0  0  0  0  0  0
    5.2724    3.2104   -3.8227 H   0  0  0  0  0  0  0  0  0  0  0  0
    4.1443   -0.9755    3.1245 H   0  0  0  0  0  0  0  0  0  0  0  0
    7.9457   -8.1124    2.7101 H   0  0  0  0  0  0  0  0  0  0  0  0
    7.0219   -7.1056    1.7325 H   0  0  0  0  0  0  0  0  0  0  0  0
    7.9380   -5.9844    5.4478 H   0  0  0  0  0  0  0  0  0  0  0  0
    8.4758   -7.4636    4.8601 H   0  0  0  0  0  0  0  0  0  0  0  0
    1.7542   -1.0929    1.1804 H   0  0  0  0  0  0  0  0  0  0  0  0
  1  2  2  0  0  0  0
  1  3  1  0  0  0  0
  1 28  1  0  0  0  0
  2  4  1  0  0  0  0
  2 29  1  0  0  0  0
  3  5  2  0  0  0  0
  3 30  1  0  0  0  0
  4 13  2  0  0  0  0
  4 31  1  0  0  0  0
  5 13  1  0  0  0  0
  5 32  1  0  0  0  0
  6  7  2  0  0  0  0
  6 16  1  0  0  0  0
  6 33  1  0  0  0  0
  7 17  1  0  0  0  0
  7 34  1  0  0  0  0
  8 12  1  0  0  0  0
  8 16  2  0  0  0  0
  8 35  1  0  0  0  0
  9 12  1  0  0  0  0
  9 20  2  0  0  0  0
  9 36  1  0  0  0  0
 10 14  2  0  0  0  0
 10 18  1  0  0  0  0
 10 37  1  0  0  0  0
 11 15  1  0  0  0  0
 11 18  2  0  0  0  0
 11 38  1  0  0  0  0
 12 17  2  0  0  0  0
 13 14  1  0  0  0  0
 14 19  1  0  0  0  0
 15 19  2  0  0  0  0
 15 20  1  0  0  0  0
 16 21  1  0  0  0  0
 17 23  1  0  0  0  0
 18 27  1  0  0  0  0
 19 26  1  0  0  0  0
 20 23  1  0  0  0  0
 21 24  1  0  0  0  0
 21 25  2  0  0  0  0
 22 27  1  0  0  0  0
 22 39  1  0  0  0  0
 22 40  1  0  0  0  0
 22 41  1  0  0  0  0
 23 42  1  0  0  0  0
 24 43  1  0  0  0  0
 24 44  1  0  0  0  0
 25 45  1  0  0  0  0
 25 46  1  0  0  0  0
 26 47  1  0  0  0  0
M  END
>  <name>
3-{5-[AMINO(IMINIO)METHYL]-1H-INDOL-2-YL}-5-METHOXY-1,1'-BIPHENYL-2-OLATE

>  <score>
1.279

>  <target>


$$$$
DB07291
 OpenBabel11241310543D

 22 23  0  0  0  0  0  0  0  0999 V2000
    4.1316    2.2565   -2.2223 C   0  0  0  0  0  0  0  0  0  0  0  0
    5.9029   -2.2237    0.3193 C   0  0  0  0  0  0  0  0  0  0  0  0
    4.8337   -1.4980    2.3459 C   0  0  0  0  0  0  0  0  0  0  0  0
    6.5228   -3.2435    1.0146 C   0  0  0  0  0  0  0  0  0  0  0  0
    5.4511   -2.5230    3.0356 C   0  0  0  0  0  0  0  0  0  0  0  0
    2.8770    1.1416   -0.3134 C   0  0  0  0  0  0  0  0  0  0  0  0
    4.0003    1.3089   -1.1567 C   0  0  0  0  0  0  0  0  0  0  0  0
    5.0534   -1.3488    0.9831 C   0  0  0  0  0  0  0  0  0  0  0  0
    6.2975   -3.3937    2.3717 C   0  0  0  0  0  0  0  0  0  0  0  0
    4.9516    0.3737   -0.7582 C   0  0  0  0  0  0  0  0  0  0  0  0
    4.2358    3.0081   -3.0676 N   0  0  0  0  0  0  0  0  0  0  0  0
    3.1386    0.1819    0.5296 N   0  0  0  0  0  0  0  0  0  0  0  0
    4.4230   -0.3132    0.2797 N   0  0  0  0  0  0  0  0  0  0  0  0
    6.2032    0.1881   -1.3134 N   0  0  0  0  0  0  0  0  0  0  0  0
    7.0772   -4.6771    3.2427 Cl  0  0  0  0  0  0  0  0  0  0  0  0
    6.0785   -2.1073   -0.7399 H   0  0  0  0  0  0  0  0  0  0  0  0
    4.1737   -0.8184    2.8646 H   0  0  0  0  0  0  0  0  0  0  0  0
    7.1836   -3.9242    0.4987 H   0  0  0  0  0  0  0  0  0  0  0  0
    5.2769   -2.6423    4.0947 H   0  0  0  0  0  0  0  0  0  0  0  0
    1.9607    1.7113   -0.3595 H   0  0  0  0  0  0  0  0  0  0  0  0
    6.7964   -0.4910   -0.9559 H   0  0  0  0  0  0  0  0  0  0  0  0
    6.4885    0.7368   -2.0606 H   0  0  0  0  0  0  0  0  0  0  0  0
  1  7  1  0  0  0  0
  1 11  3  0  0  0  0
  2  4  2  0  0  0  0
  2  8  1  0  0  0  0
  2 16  1  0  0  0  0
  3  5  1  0  0  0  0
  3  8  2  0  0  0  0
  3 17  1  0  0  0  0
  4  9  1  0  0  0  0
  4 18  1  0  0  0  0
  5  9  2  0  0  0  0
  5 19  1  0  0  0  0
  6  7  1  0  0  0  0
  6 12  2  0  0  0  0
  6 20  1  0  0  0  0
  7 10  2  0  0  0  0
  8 13  1  0  0  0  0
  9 15  1  0  0  0  0
 10 13  1  0  0  0  0
 10 14  1  0  0  0  0
 12 13  1  0  0  0  0
 14 21  1  0  0  0  0
 14 22  1  0  0  0  0
M  END
>  <name>
5-amino-1-(4-chlorophenyl)-1H-pyrazole-4-carbonitrile

>  <score>
1.278

>  <target>


$$$$
DB07595
 OpenBabel11241310543D

 39 42  0  0  1  0  0  0  0  0999 V2000
    6.1019   -3.2972    1.1159 C   0  0  0  0  0  0  0  0  0  0  0  0
    5.9039   -2.2195    0.2527 C   0  0  0  0  0  0  0  0  0  0  0  0
    5.6550   -3.2253    2.4353 C   0  0  0  0  0  0  0  0  0  0  0  0
   -0.3828    3.5058   -0.5123 C   0  0  0  0  0  0  0  0  0  0  0  0
   -0.0519    1.4644    0.7158 C   0  0  0  0  0  0  0  0  0  0  0  0
    6.6623    1.6170   -3.1201 C   0  0  0  0  0  0  0  0  0  0  0  0
    4.8123   -0.9979    2.0284 C   0  0  0  0  0  0  0  0  0  0  0  0
    3.9376    0.8677    0.0100 C   0  0  0  0  0  0  0  0  0  0  0  0
   -1.7034    3.1238   -0.6859 C   0  0  0  0  0  0  0  0  0  0  0  0
   -1.3873    1.1740    0.4873 C   0  0  0  0  0  0  0  0  0  0  0  0
    6.0451    2.7545   -3.6728 C   0  0  0  0  0  0  0  0  0  0  0  0
    5.2592   -1.0699    0.7090 C   0  0  0  0  0  0  0  0  0  0  0  0
    0.4521    2.6547    0.2031 C   0  0  0  0  0  0  0  0  0  0  0  0
    5.0102   -2.0755    2.8916 C   0  0  0  0  0  0  0  0  0  0  0  0
    5.0537    0.0495   -0.1878 C   0  0  1  0  0  0  0  0  0  0  0  0
    5.8592    1.1862   -1.9950 C   0  0  2  0  0  0  0  0  0  0  0  0
    3.7465    1.9336   -0.8482 C   0  0  1  0  0  0  0  0  0  0  0  0
    1.8923    3.0188    0.4205 C   0  0  0  0  0  0  0  0  0  0  0  0
   -2.2290    1.9758   -0.2029 N   0  0  0  0  0  0  0  0  0  0  0  0
    6.0259    0.1474   -1.1410 N   0  0  0  0  0  0  0  0  0  0  0  0
    4.9098    3.0162   -2.9211 N   0  0  0  0  0  0  0  0  0  0  0  0
    4.7835    2.0477   -1.8748 N   0  0  2  0  0  0  0  0  0  0  0  0
    2.6824    2.8267   -0.7685 N   0  0  0  0  0  0  0  0  0  0  0  0
    4.4064   -1.9781    4.6801 Br  0  0  0  0  0  0  0  0  0  0  0  0
    6.6041   -4.1923    0.7609 H   0  0  0  0  0  0  0  0  0  0  0  0
    6.2568   -2.2915   -0.7733 H   0  0  0  0  0  0  0  0  0  0  0  0
    5.8172   -4.0741    3.0950 H   0  0  0  0  0  0  0  0  0  0  0  0
   -0.0201    4.4408   -0.9258 H   0  0  0  0  0  0  0  0  0  0  0  0
    0.5743    0.7802    1.2779 H   0  0  0  0  0  0  0  0  0  0  0  0
    7.5717    1.1584   -3.4817 H   0  0  0  0  0  0  0  0  0  0  0  0
    4.3094   -0.1003    2.3834 H   0  0  0  0  0  0  0  0  0  0  0  0
    3.2351    0.6756    0.8160 H   0  0  0  0  0  0  0  0  0  0  0  0
   -2.3952    3.7520   -1.2376 H   0  0  0  0  0  0  0  0  0  0  0  0
   -1.8286    0.2581    0.8661 H   0  0  0  0  0  0  0  0  0  0  0  0
    6.3103    3.3810   -4.5121 H   0  0  0  0  0  0  0  0  0  0  0  0
    1.9841    4.0685    0.7205 H   0  0  0  0  0  0  0  0  0  0  0  0
    2.3349    2.4128    1.2182 H   0  0  0  0  0  0  0  0  0  0  0  0
    4.2399    3.7637   -3.0501 H   0  0  0  0  0  0  0  0  0  0  0  0
    2.4549    3.3666   -1.5928 H   0  0  0  0  0  0  0  0  0  0  0  0
  1  2  2  0  0  0  0
  1  3  1  0  0  0  0
  1 25  1  0  0  0  0
  2 12  1  0  0  0  0
  2 26  1  0  0  0  0
  3 14  2  0  0  0  0
  3 27  1  0  0  0  0
  4  9  2  0  0  0  0
  4 13  1  0  0  0  0
  4 28  1  0  0  0  0
  5 10  1  0  0  0  0
  5 13  2  0  0  0  0
  5 29  1  0  0  0  0
  6 11  2  0  0  0  0
  6 30  1  0  0  0  0
  7 12  2  0  0  0  0
  7 14  1  0  0  0  0
  7 31  1  0  0  0  0
  8 15  1  0  0  0  0
  8 17  1  0  0  0  0
  8 32  1  0  0  0  0
  9 19  1  0  0  0  0
  9 33  1  0  0  0  0
 10 19  2  0  0  0  0
 10 34  1  0  0  0  0
 11 21  1  0  0  0  0
 11 35  1  0  0  0  0
 13 18  1  0  0  0  0
 14 24  1  0  0  0  0
 15 12  1  6  0  0  0
 15 20  1  0  0  0  0
 16  6  1  6  0  0  0
 16 20  1  0  0  0  0
 16 22  1  0  0  0  0
 17 22  1  0  0  0  0
 17 23  1  6  0  0  0
 18 23  1  0  0  0  0
 18 36  1  0  0  0  0
 18 37  1  0  0  0  0
 21 38  1  0  0  0  0
 22 21  1  6  0  0  0
 23 39  1  0  0  0  0
M  END
>  <name>
(5Z)-5-(3-BROMOCYCLOHEXA-2,5-DIEN-1-YLIDENE)-N-(PYRIDIN-4-YLMETHYL)-1,5-DIHYDROPYRAZOLO[1,5-A]PYRIMIDIN-7-AMINE

>  <score>
1.276

>  <target>


$$$$
DB07173
 OpenBabel11241310543D

 32 34  0  0  1  0  0  0  0  0999 V2000
    2.8994    0.0867    0.7632 C   0  0  0  0  0  0  0  0  0  0  0  0
    5.8758    1.3138   -2.2642 C   0  0  0  0  0  0  0  0  0  0  0  0
    3.5521    1.3800   -0.9660 C   0  0  0  0  0  0  0  0  0  0  0  0
    2.4913    1.1119   -0.0634 C   0  0  0  0  0  0  0  0  0  0  0  0
    4.5807    0.4990   -0.6557 C   0  0  0  0  0  0  0  0  0  0  0  0
    3.7826    2.2634   -2.0197 C   0  0  0  0  0  0  0  0  0  0  0  0
    4.7656   -3.0790    2.5879 C   0  0  1  0  0  0  0  0  0  0  0  0
    4.5086   -1.5899    2.4605 C   0  0  2  0  0  0  0  0  0  0  0  0
    4.2986   -3.5634    1.2194 C   0  0  2  0  0  0  0  0  0  0  0  0
    4.9394   -1.3214    1.0230 C   0  0  2  0  0  0  0  0  0  0  0  0
    4.8589   -4.8974    0.7626 C   0  0  0  0  0  0  0  0  0  0  0  0
    5.7748    0.4114   -1.2672 N   0  0  0  0  0  0  0  0  0  0  0  0
    4.9655    2.2250   -2.6756 N   0  0  0  0  0  0  0  0  0  0  0  0
    4.1688   -0.2782    0.3941 N   0  0  0  0  0  0  0  0  0  0  0  0
    2.8175    3.2018   -2.4275 N   0  0  0  0  0  0  0  0  0  0  0  0
    4.6973   -2.5367    0.2847 O   0  0  0  0  0  0  0  0  0  0  0  0
    6.1598   -3.3099    2.7651 O   0  0  0  0  0  0  0  0  0  0  0  0
    5.2446   -0.8334    3.3995 O   0  0  0  0  0  0  0  0  0  0  0  0
    0.6543    2.0172    0.0778 I   0  0  0  0  0  0  0  0  0  0  0  0
    2.3993   -0.4158    1.5808 H   0  0  0  0  0  0  0  0  0  0  0  0
    6.8133    1.3091   -2.8098 H   0  0  0  0  0  0  0  0  0  0  0  0
    4.2300   -3.5361    3.4251 H   0  0  0  0  0  0  0  0  0  0  0  0
    3.4399   -1.3841    2.6021 H   0  0  0  0  0  0  0  0  0  0  0  0
    3.2022   -3.6006    1.1955 H   0  0  0  0  0  0  0  0  0  0  0  0
    5.9929   -1.0416    0.9269 H   0  0  0  0  0  0  0  0  0  0  0  0
    5.9507   -4.8763    0.7808 H   0  0  0  0  0  0  0  0  0  0  0  0
    4.5314   -5.1173   -0.2559 H   0  0  0  0  0  0  0  0  0  0  0  0
    4.5146   -5.6985    1.4204 H   0  0  0  0  0  0  0  0  0  0  0  0
    1.9201    3.2096   -1.9822 H   0  0  0  0  0  0  0  0  0  0  0  0
    3.0043    3.7865   -3.2194 H   0  0  0  0  0  0  0  0  0  0  0  0
    6.2742   -4.2701    2.8412 H   0  0  0  0  0  0  0  0  0  0  0  0
    5.0246    0.1033    3.2517 H   0  0  0  0  0  0  0  0  0  0  0  0
  1  4  2  0  0  0  0
  1 14  1  0  0  0  0
  1 20  1  0  0  0  0
  2 12  2  0  0  0  0
  2 13  1  0  0  0  0
  2 21  1  0  0  0  0
  3  4  1  0  0  0  0
  3  5  2  0  0  0  0
  3  6  1  0  0  0  0
  4 19  1  0  0  0  0
  5 12  1  0  0  0  0
  5 14  1  0  0  0  0
  6 13  2  0  0  0  0
  6 15  1  0  0  0  0
  7  8  1  0  0  0  0
  7  9  1  0  0  0  0
  7 17  1  0  0  0  0
  7 22  1  1  0  0  0
  8 10  1  0  0  0  0
  8 18  1  0  0  0  0
  8 23  1  1  0  0  0
  9 11  1  0  0  0  0
  9 16  1  0  0  0  0
  9 24  1  1  0  0  0
 10 14  1  0  0  0  0
 10 16  1  0  0  0  0
 10 25  1  6  0  0  0
 11 26  1  0  0  0  0
 11 27  1  0  0  0  0
 11 28  1  0  0  0  0
 15 29  1  0  0  0  0
 15 30  1  0  0  0  0
 17 31  1  0  0  0  0
 18 32  1  0  0  0  0
M  END
>  <name>
7-(5-DEOXY-BETA-D-RIBOFURANOSYL)-5-IODO-7H-PYRROLO[2,3-D]PYRIMIDIN-4-AMINE

>  <score>
1.273

>  <target>


$$$$
DB08757
 OpenBabel11241310543D

 25 26  0  0  0  0  0  0  0  0999 V2000
    6.0864   -3.4824    1.1573 C   0  0  0  0  0  0  0  0  0  0  0  0
    6.1299   -3.4632    2.5400 C   0  0  0  0  0  0  0  0  0  0  0  0
    5.4539   -2.4678    0.4690 C   0  0  0  0  0  0  0  0  0  0  0  0
    5.5408   -2.4274    3.2431 C   0  0  0  0  0  0  0  0  0  0  0  0
    2.9132    0.1304    0.6930 C   0  0  0  0  0  0  0  0  0  0  0  0
    2.6634    1.1604   -0.2195 C   0  0  0  0  0  0  0  0  0  0  0  0
    4.8518   -1.4219    1.1710 C   0  0  0  0  0  0  0  0  0  0  0  0
    4.9046   -1.4049    2.5678 C   0  0  0  0  0  0  0  0  0  0  0  0
    4.1730   -0.3324    0.4411 C   0  0  0  0  0  0  0  0  0  0  0  0
    3.7900    1.2786   -1.0038 C   0  0  0  0  0  0  0  0  0  0  0  0
    3.9785    2.2312   -2.1008 C   0  0  0  0  0  0  0  0  0  0  0  0
    5.3111    3.1309   -3.8148 N   0  0  0  0  0  0  0  0  0  0  0  0
    5.1355    2.2428   -2.7919 N   0  0  0  0  0  0  0  0  0  0  0  0
    3.0901    3.0122   -2.3879 O   0  0  0  0  0  0  0  0  0  0  0  0
    4.6903    0.3642   -0.5846 O   0  0  0  0  0  0  0  0  0  0  0  0
    4.1663   -0.1055    3.4511 Cl  0  0  0  0  0  0  0  0  0  0  0  0
    6.5491   -4.2938    0.6152 H   0  0  0  0  0  0  0  0  0  0  0  0
    6.6266   -4.2603    3.0733 H   0  0  0  0  0  0  0  0  0  0  0  0
    5.4213   -2.4844   -0.6103 H   0  0  0  0  0  0  0  0  0  0  0  0
    5.5788   -2.4185    4.3224 H   0  0  0  0  0  0  0  0  0  0  0  0
    2.2389   -0.2276    1.4569 H   0  0  0  0  0  0  0  0  0  0  0  0
    1.7603    1.7475   -0.2968 H   0  0  0  0  0  0  0  0  0  0  0  0
    5.3250    4.0510   -3.4006 H   0  0  0  0  0  0  0  0  0  0  0  0
    6.2347    2.9663   -4.1863 H   0  0  0  0  0  0  0  0  0  0  0  0
    5.8434    1.6204   -2.5631 H   0  0  0  0  0  0  0  0  0  0  0  0
  1  2  2  0  0  0  0
  1  3  1  0  0  0  0
  1 17  1  0  0  0  0
  2  4  1  0  0  0  0
  2 18  1  0  0  0  0
  3  7  2  0  0  0  0
  3 19  1  0  0  0  0
  4  8  2  0  0  0  0
  4 20  1  0  0  0  0
  5  6  1  0  0  0  0
  5  9  2  0  0  0  0
  5 21  1  0  0  0  0
  6 10  2  0  0  0  0
  6 22  1  0  0  0  0
  7  8  1  0  0  0  0
  7  9  1  0  0  0  0
  8 16  1  0  0  0  0
  9 15  1  0  0  0  0
 10 11  1  0  0  0  0
 10 15  1  0  0  0  0
 11 13  1  0  0  0  0
 11 14  2  0  0  0  0
 12 13  1  0  0  0  0
 12 23  1  0  0  0  0
 12 24  1  0  0  0  0
 13 25  1  0  0  0  0
M  END
>  <name>
5-(2-chlorophenyl)furan-2-carbohydrazide

>  <score>
1.266

>  <target>


$$$$
DB07837
 OpenBabel11241310543D

 46 50  0  0  0  0  0  0  0  0999 V2000
   -3.2280    4.4550    0.7764 C   0  0  0  0  0  0  0  0  0  0  0  0
   -2.3967    5.4240    0.2227 C   0  0  0  0  0  0  0  0  0  0  0  0
   -2.7711    3.1453    0.9258 C   0  0  0  0  0  0  0  0  0  0  0  0
   -1.1053    5.0872   -0.1837 C   0  0  0  0  0  0  0  0  0  0  0  0
   -0.9975    1.4751    0.6654 C   0  0  0  0  0  0  0  0  0  0  0  0
    0.2939    1.1382    0.2590 C   0  0  0  0  0  0  0  0  0  0  0  0
    5.6693   -2.8231    0.5214 C   0  0  0  0  0  0  0  0  0  0  0  0
    5.3401   -1.1125    2.1956 C   0  0  0  0  0  0  0  0  0  0  0  0
    5.6861   -3.7970    1.5198 C   0  0  0  0  0  0  0  0  0  0  0  0
    5.3569   -2.0865    3.1940 C   0  0  0  0  0  0  0  0  0  0  0  0
    0.6683    3.4171   -0.4443 C   0  0  0  0  0  0  0  0  0  0  0  0
    3.1642    0.7376   -0.0708 C   0  0  0  0  0  0  0  0  0  0  0  0
    3.0759    2.4243   -1.7675 C   0  0  0  0  0  0  0  0  0  0  0  0
    6.5463   -0.2692   -1.0134 C   0  0  0  0  0  0  0  0  0  0  0  0
   -1.4741    2.7884    0.5224 C   0  0  0  0  0  0  0  0  0  0  0  0
   -0.6286    3.7739   -0.0408 C   0  0  0  0  0  0  0  0  0  0  0  0
    4.4597    0.4426   -0.5258 C   0  0  0  0  0  0  0  0  0  0  0  0
    5.4963   -1.4808    0.8594 C   0  0  0  0  0  0  0  0  0  0  0  0
    1.1252    2.1074   -0.2948 C   0  0  0  0  0  0  0  0  0  0  0  0
    2.4643    1.7559   -0.7154 C   0  0  0  0  0  0  0  0  0  0  0  0
    5.4785   -0.4796   -0.1679 C   0  0  0  0  0  0  0  0  0  0  0  0
    5.5299   -3.4287    2.8561 C   0  0  0  0  0  0  0  0  0  0  0  0
    4.9505    1.1921   -1.5910 C   0  0  0  0  0  0  0  0  0  0  0  0
    6.9783   -4.6793    4.4152 C   0  0  0  0  0  0  0  0  0  0  0  0
    5.5466   -4.4710    3.9226 C   0  0  0  0  0  0  0  0  0  0  0  0
    4.3182    2.1834   -2.2472 N   0  0  0  0  0  0  0  0  0  0  0  0
    6.2154    0.7470   -1.8719 N   0  0  0  0  0  0  0  0  0  0  0  0
    7.5163   -3.6674    4.9473 O   0  0  0  0  0  0  0  0  0  0  0  0
    7.4502   -5.8356    4.2229 O   0  0  0  0  0  0  0  0  0  0  0  0
   -4.2327    4.7180    1.0935 H   0  0  0  0  0  0  0  0  0  0  0  0
   -2.7532    6.4434    0.1067 H   0  0  0  0  0  0  0  0  0  0  0  0
   -3.4385    2.4041    1.3604 H   0  0  0  0  0  0  0  0  0  0  0  0
   -0.4731    5.8612   -0.6137 H   0  0  0  0  0  0  0  0  0  0  0  0
   -1.6304    0.7018    1.0954 H   0  0  0  0  0  0  0  0  0  0  0  0
    0.6364    0.1134    0.3820 H   0  0  0  0  0  0  0  0  0  0  0  0
    5.7931   -3.1267   -0.5154 H   0  0  0  0  0  0  0  0  0  0  0  0
    5.2043   -0.0703    2.4751 H   0  0  0  0  0  0  0  0  0  0  0  0
    5.8205   -4.8406    1.2479 H   0  0  0  0  0  0  0  0  0  0  0  0
    5.2345   -1.7913    4.2328 H   0  0  0  0  0  0  0  0  0  0  0  0
    1.3243    4.1706   -0.8786 H   0  0  0  0  0  0  0  0  0  0  0  0
    2.7283    0.1868    0.7577 H   0  0  0  0  0  0  0  0  0  0  0  0
    2.5549    3.2230   -2.2917 H   0  0  0  0  0  0  0  0  0  0  0  0
    7.5143   -0.7468   -1.0845 H   0  0  0  0  0  0  0  0  0  0  0  0
    4.9010   -4.1835    4.7671 H   0  0  0  0  0  0  0  0  0  0  0  0
    5.1392   -5.4239    3.5506 H   0  0  0  0  0  0  0  0  0  0  0  0
    6.8128    1.1142   -2.5995 H   0  0  0  0  0  0  0  0  0  0  0  0
  1  2  2  0  0  0  0
  1  3  1  0  0  0  0
  1 30  1  0  0  0  0
  2  4  1  0  0  0  0
  2 31  1  0  0  0  0
  3 15  2  0  0  0  0
  3 32  1  0  0  0  0
  4 16  2  0  0  0  0
  4 33  1  0  0  0  0
  5  6  2  0  0  0  0
  5 15  1  0  0  0  0
  5 34  1  0  0  0  0
  6 19  1  0  0  0  0
  6 35  1  0  0  0  0
  7  9  2  0  0  0  0
  7 18  1  0  0  0  0
  7 36  1  0  0  0  0
  8 10  1  0  0  0  0
  8 18  2  0  0  0  0
  8 37  1  0  0  0  0
  9 22  1  0  0  0  0
  9 38  1  0  0  0  0
 10 22  2  0  0  0  0
 10 39  1  0  0  0  0
 11 16  1  0  0  0  0
 11 19  2  0  0  0  0
 11 40  1  0  0  0  0
 12 17  2  0  0  0  0
 12 20  1  0  0  0  0
 12 41  1  0  0  0  0
 13 20  2  0  0  0  0
 13 26  1  0  0  0  0
 13 42  1  0  0  0  0
 14 21  2  0  0  0  0
 14 27  1  0  0  0  0
 14 43  1  0  0  0  0
 15 16  1  0  0  0  0
 17 21  1  0  0  0  0
 17 23  1  0  0  0  0
 18 21  1  0  0  0  0
 19 20  1  0  0  0  0
 22 25  1  0  0  0  0
 23 26  2  0  0  0  0
 23 27  1  0  0  0  0
 24 25  1  0  0  0  0
 24 28  1  0  0  0  0
 24 29  2  0  0  0  0
 25 44  1  0  0  0  0
 25 45  1  0  0  0  0
 27 46  1  0  0  0  0
M  END
>  <name>
[4-(5-naphthalen-2-yl-1H-pyrrolo[2,3-b]pyridin-3-yl)phenyl]acetic acid

>  <score>
1.261

>  <target>


$$$$
DB04716
 OpenBabel11241310543D

 39 42  0  0  0  0  0  0  0  0999 V2000
    1.5899    0.4819    1.1160 C   0  0  0  0  0  0  0  0  0  0  0  0
    0.5092    1.2913    0.9175 C   0  0  0  0  0  0  0  0  0  0  0  0
    1.6200    2.4184   -0.8942 C   0  0  0  0  0  0  0  0  0  0  0  0
    2.7224    0.6201    0.3086 C   0  0  0  0  0  0  0  0  0  0  0  0
    2.7383    1.5999   -0.7085 C   0  0  0  0  0  0  0  0  0  0  0  0
    3.9285    1.7372   -1.5488 C   0  0  0  0  0  0  0  0  0  0  0  0
    5.0361    0.8977   -1.3357 C   0  0  0  0  0  0  0  0  0  0  0  0
    3.8977   -0.2358    0.5004 C   0  0  0  0  0  0  0  0  0  0  0  0
    5.0153   -0.0753   -0.3145 C   0  0  0  0  0  0  0  0  0  0  0  0
    0.5181    2.2586   -0.0835 C   0  0  0  0  0  0  0  0  0  0  0  0
    5.3712   -1.6928    1.1323 C   0  0  0  0  0  0  0  0  0  0  0  0
    6.1763    1.0537   -2.1666 C   0  0  0  0  0  0  0  0  0  0  0  0
    6.1735    1.9880   -3.1347 C   0  0  0  0  0  0  0  0  0  0  0  0
    3.9850    2.6976   -2.5871 C   0  0  0  0  0  0  0  0  0  0  0  0
    7.0838   -2.2368    2.8411 C   0  0  0  0  0  0  0  0  0  0  0  0
    4.9746   -3.5691    2.7042 C   0  0  0  0  0  0  0  0  0  0  0  0
    6.7004   -3.7743    0.9093 C   0  0  0  0  0  0  0  0  0  0  0  0
    6.0301   -2.8140    1.8939 C   0  0  0  0  0  0  0  0  0  0  0  0
    4.1739   -1.2323    1.3634 N   0  0  0  0  0  0  0  0  0  0  0  0
    5.9342   -1.0132    0.1096 N   0  0  0  0  0  0  0  0  0  0  0  0
    5.0957    2.7979   -3.3428 N   0  0  0  0  0  0  0  0  0  0  0  0
    3.0351    3.4338   -2.7931 O   0  0  0  0  0  0  0  0  0  0  0  0
   -0.5637    3.0483   -0.2609 F   0  0  0  0  0  0  0  0  0  0  0  0
    1.5701   -0.2647    1.8962 H   0  0  0  0  0  0  0  0  0  0  0  0
   -0.3631    1.1803    1.5445 H   0  0  0  0  0  0  0  0  0  0  0  0
    1.6204    3.1713   -1.6684 H   0  0  0  0  0  0  0  0  0  0  0  0
    7.0423    0.4247   -2.0226 H   0  0  0  0  0  0  0  0  0  0  0  0
    7.0454    2.0993   -3.7624 H   0  0  0  0  0  0  0  0  0  0  0  0
    6.6062   -1.5527    3.5425 H   0  0  0  0  0  0  0  0  0  0  0  0
    7.5603   -3.0478    3.3919 H   0  0  0  0  0  0  0  0  0  0  0  0
    7.8356   -1.6988    2.2638 H   0  0  0  0  0  0  0  0  0  0  0  0
    4.2239   -3.9803    2.0295 H   0  0  0  0  0  0  0  0  0  0  0  0
    5.4511   -4.3800    3.2551 H   0  0  0  0  0  0  0  0  0  0  0  0
    4.4970   -2.8850    3.4056 H   0  0  0  0  0  0  0  0  0  0  0  0
    7.4523   -3.2363    0.3319 H   0  0  0  0  0  0  0  0  0  0  0  0
    7.1770   -4.5852    1.4602 H   0  0  0  0  0  0  0  0  0  0  0  0
    5.9497   -4.1854    0.2345 H   0  0  0  0  0  0  0  0  0  0  0  0
    6.8198   -1.1579   -0.2586 H   0  0  0  0  0  0  0  0  0  0  0  0
    5.1296    3.4603   -4.0507 H   0  0  0  0  0  0  0  0  0  0  0  0
  1  2  2  0  0  0  0
  1  4  1  0  0  0  0
  1 24  1  0  0  0  0
  2 10  1  0  0  0  0
  2 25  1  0  0  0  0
  3  5  1  0  0  0  0
  3 10  2  0  0  0  0
  3 26  1  0  0  0  0
  4  5  2  0  0  0  0
  4  8  1  0  0  0  0
  5  6  1  0  0  0  0
  6  7  2  0  0  0  0
  6 14  1  0  0  0  0
  7  9  1  0  0  0  0
  7 12  1  0  0  0  0
  8  9  2  0  0  0  0
  8 19  1  0  0  0  0
  9 20  1  0  0  0  0
 10 23  1  0  0  0  0
 11 18  1  0  0  0  0
 11 19  2  0  0  0  0
 11 20  1  0  0  0  0
 12 13  2  0  0  0  0
 12 27  1  0  0  0  0
 13 21  1  0  0  0  0
 13 28  1  0  0  0  0
 14 21  1  0  0  0  0
 14 22  2  0  0  0  0
 15 18  1  0  0  0  0
 15 29  1  0  0  0  0
 15 30  1  0  0  0  0
 15 31  1  0  0  0  0
 16 18  1  0  0  0  0
 16 32  1  0  0  0  0
 16 33  1  0  0  0  0
 16 34  1  0  0  0  0
 17 18  1  0  0  0  0
 17 35  1  0  0  0  0
 17 36  1  0  0  0  0
 17 37  1  0  0  0  0
 20 38  1  0  0  0  0
 21 39  1  0  0  0  0
M  END
>  <name>
2-(1,1-DIMETHYLETHYL)9-FLUORO-3,6-DIHYDRO-7H-BENZ[H]-IMIDAZ[4,5-F]ISOQUINOLIN-7-ONE

>  <score>
1.258

>  <target>
Tyrosine-protein kinase JAK2
Death-associated protein kinase 3
Tyrosine-protein kinase JAK1
Tyrosine-protein kinase JAK3

$$$$
DB03159
 OpenBabel11241310543D

 43 46  0  0  0  0  0  0  0  0999 V2000
   -1.3162    2.7697    0.4510 C   0  0  0  0  0  0  0  0  0  0  0  0
   -1.1383    1.4031    0.3327 C   0  0  0  0  0  0  0  0  0  0  0  0
   -0.2321    3.6241    0.3606 C   0  0  0  0  0  0  0  0  0  0  0  0
    4.6530    1.2025   -1.4110 C   0  0  0  0  0  0  0  0  0  0  0  0
    0.1235    0.8845    0.1231 C   0  0  0  0  0  0  0  0  0  0  0  0
    1.0349    3.1162    0.1569 C   0  0  0  0  0  0  0  0  0  0  0  0
    3.3873    1.7135   -1.1996 C   0  0  0  0  0  0  0  0  0  0  0  0
    5.1287    0.1685   -0.6290 C   0  0  0  0  0  0  0  0  0  0  0  0
    6.0415   -4.4979    4.4567 C   0  0  0  0  0  0  0  0  0  0  0  0
    5.3555   -3.3302    4.2930 C   0  0  0  0  0  0  0  0  0  0  0  0
    6.5648   -4.5632    2.0961 C   0  0  0  0  0  0  0  0  0  0  0  0
    5.5790   -2.5211    0.7682 C   0  0  0  0  0  0  0  0  0  0  0  0
    5.8648   -3.3696    1.9250 C   0  0  0  0  0  0  0  0  0  0  0  0
    1.2193    1.7405    0.0313 C   0  0  0  0  0  0  0  0  0  0  0  0
    2.5780    1.1890   -0.1935 C   0  0  0  0  0  0  0  0  0  0  0  0
    4.3323   -0.3688    0.3826 C   0  0  0  0  0  0  0  0  0  0  0  0
    6.6528   -5.1275    3.3645 C   0  0  0  0  0  0  0  0  0  0  0  0
    5.2539   -2.7465    3.0326 C   0  0  0  0  0  0  0  0  0  0  0  0
    3.0471    0.1397    0.5989 C   0  0  0  0  0  0  0  0  0  0  0  0
    4.8424   -1.4756    1.2192 C   0  0  0  0  0  0  0  0  0  0  0  0
    7.3968   -6.3893    3.5611 C   0  0  0  0  0  0  0  0  0  0  0  0
    4.6429   -1.6025    2.5747 N   0  0  0  0  0  0  0  0  0  0  0  0
    7.4668   -7.2819    2.5747 N   0  0  0  0  0  0  0  0  0  0  0  0
    7.9974   -6.6339    4.7248 N   0  0  0  0  0  0  0  0  0  0  0  0
    2.2647   -0.3770    1.5809 O   0  0  0  0  0  0  0  0  0  0  0  0
   -2.3054    3.1713    0.6142 H   0  0  0  0  0  0  0  0  0  0  0  0
   -1.9882    0.7407    0.4041 H   0  0  0  0  0  0  0  0  0  0  0  0
   -0.3768    4.6903    0.4534 H   0  0  0  0  0  0  0  0  0  0  0  0
    5.2745    1.6143   -2.1924 H   0  0  0  0  0  0  0  0  0  0  0  0
    0.2613   -0.1826    0.0303 H   0  0  0  0  0  0  0  0  0  0  0  0
    1.8808    3.7840    0.0868 H   0  0  0  0  0  0  0  0  0  0  0  0
    3.0237    2.5225   -1.8158 H   0  0  0  0  0  0  0  0  0  0  0  0
    6.1196   -0.2251   -0.8009 H   0  0  0  0  0  0  0  0  0  0  0  0
    6.1140   -4.9420    5.4385 H   0  0  0  0  0  0  0  0  0  0  0  0
    4.8888   -2.8568    5.1442 H   0  0  0  0  0  0  0  0  0  0  0  0
    7.0346   -5.0453    1.2515 H   0  0  0  0  0  0  0  0  0  0  0  0
    5.8943   -2.6942   -0.2501 H   0  0  0  0  0  0  0  0  0  0  0  0
    4.1453   -0.9781    3.1255 H   0  0  0  0  0  0  0  0  0  0  0  0
    7.9552   -8.1101    2.7037 H   0  0  0  0  0  0  0  0  0  0  0  0
    7.0296   -7.1038    1.7274 H   0  0  0  0  0  0  0  0  0  0  0  0
    7.9464   -5.9839    5.4430 H   0  0  0  0  0  0  0  0  0  0  0  0
    8.4858   -7.4620    4.8539 H   0  0  0  0  0  0  0  0  0  0  0  0
    1.7529   -1.0941    1.1821 H   0  0  0  0  0  0  0  0  0  0  0  0
  1  2  2  0  0  0  0
  1  3  1  0  0  0  0
  1 26  1  0  0  0  0
  2  5  1  0  0  0  0
  2 27  1  0  0  0  0
  3  6  2  0  0  0  0
  3 28  1  0  0  0  0
  4  7  2  0  0  0  0
  4  8  1  0  0  0  0
  4 29  1  0  0  0  0
  5 14  2  0  0  0  0
  5 30  1  0  0  0  0
  6 14  1  0  0  0  0
  6 31  1  0  0  0  0
  7 15  1  0  0  0  0
  7 32  1  0  0  0  0
  8 16  2  0  0  0  0
  8 33  1  0  0  0  0
  9 10  2  0  0  0  0
  9 17  1  0  0  0  0
  9 34  1  0  0  0  0
 10 18  1  0  0  0  0
 10 35  1  0  0  0  0
 11 13  1  0  0  0  0
 11 17  2  0  0  0  0
 11 36  1  0  0  0  0
 12 13  1  0  0  0  0
 12 20  2  0  0  0  0
 12 37  1  0  0  0  0
 13 18  2  0  0  0  0
 14 15  1  0  0  0  0
 15 19  2  0  0  0  0
 16 19  1  0  0  0  0
 16 20  1  0  0  0  0
 17 21  1  0  0  0  0
 18 22  1  0  0  0  0
 19 25  1  0  0  0  0
 20 22  1  0  0  0  0
 21 23  1  0  0  0  0
 21 24  2  0  0  0  0
 22 38  1  0  0  0  0
 23 39  1  0  0  0  0
 23 40  1  0  0  0  0
 24 41  1  0  0  0  0
 24 42  1  0  0  0  0
 25 43  1  0  0  0  0
M  END
>  <name>
CRA_8696

>  <score>
1.258

>  <target>
Prothrombin
Trypsin-1

$$$$
DB03623
 OpenBabel11241310543D

 33 36  0  0  0  0  0  0  0  0999 V2000
    6.8351   -1.2858   -0.1252 C   0  0  0  0  0  0  0  0  0  0  0  0
    0.1417    0.9933    0.4978 C   0  0  0  0  0  0  0  0  0  0  0  0
    0.9207    3.1369   -0.2995 C   0  0  0  0  0  0  0  0  0  0  0  0
    6.2900   -0.2483   -0.8802 C   0  0  0  0  0  0  0  0  0  0  0  0
   -1.1320    1.5279    0.6908 C   0  0  0  0  0  0  0  0  0  0  0  0
   -0.3532    3.6715   -0.1065 C   0  0  0  0  0  0  0  0  0  0  0  0
    6.6584   -2.9148    1.6645 C   0  0  0  0  0  0  0  0  0  0  0  0
    2.9626    0.2083    0.5958 C   0  0  0  0  0  0  0  0  0  0  0  0
    5.9036   -3.4708    2.6813 C   0  0  0  0  0  0  0  0  0  0  0  0
    4.1465   -2.0605    2.2484 C   0  0  0  0  0  0  0  0  0  0  0  0
    3.3201    1.7237   -1.1812 C   0  0  0  0  0  0  0  0  0  0  0  0
    6.1052   -1.8731    0.9095 C   0  0  0  0  0  0  0  0  0  0  0  0
    4.2522   -0.3355    0.4023 C   0  0  0  0  0  0  0  0  0  0  0  0
    4.8033   -1.4069    1.1883 C   0  0  0  0  0  0  0  0  0  0  0  0
    1.1682    1.7978    0.0027 C   0  0  0  0  0  0  0  0  0  0  0  0
    2.4866    1.2445   -0.1973 C   0  0  0  0  0  0  0  0  0  0  0  0
    5.0149    0.2401   -0.6395 C   0  0  0  0  0  0  0  0  0  0  0  0
   -1.3795    2.8671    0.3887 C   0  0  0  0  0  0  0  0  0  0  0  0
    4.6582   -3.0696    2.9938 N   0  0  0  0  0  0  0  0  0  0  0  0
    4.5600    1.2444   -1.4119 N   0  0  0  0  0  0  0  0  0  0  0  0
   -2.6224    3.3882    0.5766 O   0  0  0  0  0  0  0  0  0  0  0  0
    7.8407   -1.6287   -0.3607 H   0  0  0  0  0  0  0  0  0  0  0  0
    0.3191   -0.0523    0.7379 H   0  0  0  0  0  0  0  0  0  0  0  0
    1.7101    3.7769   -0.6861 H   0  0  0  0  0  0  0  0  0  0  0  0
    6.8935    0.1830   -1.6774 H   0  0  0  0  0  0  0  0  0  0  0  0
   -1.9276    0.8963    1.0766 H   0  0  0  0  0  0  0  0  0  0  0  0
   -0.5402    4.7153   -0.3437 H   0  0  0  0  0  0  0  0  0  0  0  0
    7.6584   -3.2903    1.4682 H   0  0  0  0  0  0  0  0  0  0  0  0
    2.3133   -0.1802    1.3776 H   0  0  0  0  0  0  0  0  0  0  0  0
    6.2973   -4.2796    3.2878 H   0  0  0  0  0  0  0  0  0  0  0  0
    3.1412   -1.7845    2.5517 H   0  0  0  0  0  0  0  0  0  0  0  0
    3.0198    2.5320   -1.8415 H   0  0  0  0  0  0  0  0  0  0  0  0
   -2.6365    4.3250    0.3229 H   0  0  0  0  0  0  0  0  0  0  0  0
  1  4  2  0  0  0  0
  1 12  1  0  0  0  0
  1 22  1  0  0  0  0
  2  5  2  0  0  0  0
  2 15  1  0  0  0  0
  2 23  1  0  0  0  0
  3  6  1  0  0  0  0
  3 15  2  0  0  0  0
  3 24  1  0  0  0  0
  4 17  1  0  0  0  0
  4 25  1  0  0  0  0
  5 18  1  0  0  0  0
  5 26  1  0  0  0  0
  6 18  2  0  0  0  0
  6 27  1  0  0  0  0
  7  9  2  0  0  0  0
  7 12  1  0  0  0  0
  7 28  1  0  0  0  0
  8 13  2  0  0  0  0
  8 16  1  0  0  0  0
  8 29  1  0  0  0  0
  9 19  1  0  0  0  0
  9 30  1  0  0  0  0
 10 14  1  0  0  0  0
 10 19  2  0  0  0  0
 10 31  1  0  0  0  0
 11 16  2  0  0  0  0
 11 20  1  0  0  0  0
 11 32  1  0  0  0  0
 12 14  2  0  0  0  0
 13 14  1  0  0  0  0
 13 17  1  0  0  0  0
 15 16  1  0  0  0  0
 17 20  2  0  0  0  0
 18 21  1  0  0  0  0
 21 33  1  0  0  0  0
M  END
>  <name>
9-(4-Hydroxyphenyl)-2,7-Phenanthroline

>  <score>
1.256

>  <target>


$$$$
DB08383
 OpenBabel11241310543D

 44 47  0  0  0  0  0  0  0  0999 V2000
    6.0133   -3.2333    1.8546 C   0  0  0  0  0  0  0  0  0  0  0  0
    1.2826    3.1096    0.0847 C   0  0  0  0  0  0  0  0  0  0  0  0
    0.0872    1.0152   -0.0622 C   0  0  0  0  0  0  0  0  0  0  0  0
    2.5364    2.3246   -2.8157 C   0  0  0  0  0  0  0  0  0  0  0  0
    4.9312    2.3924   -2.5036 C   0  0  0  0  0  0  0  0  0  0  0  0
    0.0714    3.8012    0.0798 C   0  0  0  0  0  0  0  0  0  0  0  0
   -1.1240    1.7070   -0.0672 C   0  0  0  0  0  0  0  0  0  0  0  0
    2.6623    3.1189   -3.9553 C   0  0  0  0  0  0  0  0  0  0  0  0
    5.0572    3.1868   -3.6432 C   0  0  0  0  0  0  0  0  0  0  0  0
    5.2854   -2.5114    0.8651 C   0  0  0  0  0  0  0  0  0  0  0  0
    6.0835   -2.5486    3.0477 C   0  0  0  0  0  0  0  0  0  0  0  0
    1.2906    1.7165    0.0136 C   0  0  0  0  0  0  0  0  0  0  0  0
    3.6708    1.9614   -2.0897 C   0  0  0  0  0  0  0  0  0  0  0  0
   -1.1319    3.1001    0.0038 C   0  0  0  0  0  0  0  0  0  0  0  0
    3.9227    3.5499   -4.3692 C   0  0  0  0  0  0  0  0  0  0  0  0
    2.5371    1.0038    0.0182 C   0  0  0  0  0  0  0  0  0  0  0  0
    3.5406    1.1405   -0.9118 C   0  0  0  0  0  0  0  0  0  0  0  0
    4.8266   -1.3023    1.3399 C   0  0  0  0  0  0  0  0  0  0  0  0
    4.0712   -0.3364    0.6354 C   0  0  0  0  0  0  0  0  0  0  0  0
   -3.5063    2.9950   -0.0804 C   0  0  0  0  0  0  0  0  0  0  0  0
    2.8449    4.6592   -6.1758 C   0  0  0  0  0  0  0  0  0  0  0  0
    2.8737    0.0832    0.9787 N   0  0  0  0  0  0  0  0  0  0  0  0
    4.5167    0.2761   -0.5030 N   0  0  0  0  0  0  0  0  0  0  0  0
   -2.3140    3.7746   -0.0008 O   0  0  0  0  0  0  0  0  0  0  0  0
    4.0456    4.3251   -5.4812 O   0  0  0  0  0  0  0  0  0  0  0  0
    5.2738   -1.0416    2.9722 S   0  0  0  0  0  0  0  0  0  0  0  0
    6.4621   -4.2058    1.6994 H   0  0  0  0  0  0  0  0  0  0  0  0
    2.2123    3.6706    0.1446 H   0  0  0  0  0  0  0  0  0  0  0  0
    0.0766   -0.0707   -0.1187 H   0  0  0  0  0  0  0  0  0  0  0  0
    1.5470    1.9965   -2.5059 H   0  0  0  0  0  0  0  0  0  0  0  0
    5.8251    2.1178   -1.9485 H   0  0  0  0  0  0  0  0  0  0  0  0
    0.0711    4.8865    0.1354 H   0  0  0  0  0  0  0  0  0  0  0  0
   -2.0579    1.1546   -0.1273 H   0  0  0  0  0  0  0  0  0  0  0  0
    1.7750    3.3986   -4.5166 H   0  0  0  0  0  0  0  0  0  0  0  0
    6.0417    3.5196   -3.9608 H   0  0  0  0  0  0  0  0  0  0  0  0
    5.1107   -2.8700   -0.1418 H   0  0  0  0  0  0  0  0  0  0  0  0
    6.5715   -2.8610    3.9599 H   0  0  0  0  0  0  0  0  0  0  0  0
   -4.3761    3.6565   -0.0753 H   0  0  0  0  0  0  0  0  0  0  0  0
   -3.5517    2.3093    0.7695 H   0  0  0  0  0  0  0  0  0  0  0  0
   -3.4938    2.4203   -1.0095 H   0  0  0  0  0  0  0  0  0  0  0  0
    3.0851    5.2801   -7.0423 H   0  0  0  0  0  0  0  0  0  0  0  0
    2.1720    5.1975   -5.5036 H   0  0  0  0  0  0  0  0  0  0  0  0
    2.3613    3.7391   -6.5124 H   0  0  0  0  0  0  0  0  0  0  0  0
    5.4058    0.1163   -0.9591 H   0  0  0  0  0  0  0  0  0  0  0  0
  1 10  1  0  0  0  0
  1 11  2  0  0  0  0
  1 27  1  0  0  0  0
  2  6  2  0  0  0  0
  2 12  1  0  0  0  0
  2 28  1  0  0  0  0
  3  7  1  0  0  0  0
  3 12  2  0  0  0  0
  3 29  1  0  0  0  0
  4  8  2  0  0  0  0
  4 13  1  0  0  0  0
  4 30  1  0  0  0  0
  5  9  1  0  0  0  0
  5 13  2  0  0  0  0
  5 31  1  0  0  0  0
  6 14  1  0  0  0  0
  6 32  1  0  0  0  0
  7 14  2  0  0  0  0
  7 33  1  0  0  0  0
  8 15  1  0  0  0  0
  8 34  1  0  0  0  0
  9 15  2  0  0  0  0
  9 35  1  0  0  0  0
 10 18  2  0  0  0  0
 10 36  1  0  0  0  0
 11 26  1  0  0  0  0
 11 37  1  0  0  0  0
 12 16  1  0  0  0  0
 13 17  1  0  0  0  0
 14 24  1  0  0  0  0
 15 25  1  0  0  0  0
 16 17  2  0  0  0  0
 16 22  1  0  0  0  0
 17 23  1  0  0  0  0
 18 19  1  0  0  0  0
 18 26  1  0  0  0  0
 19 22  2  0  0  0  0
 19 23  1  0  0  0  0
 20 24  1  0  0  0  0
 20 38  1  0  0  0  0
 20 39  1  0  0  0  0
 20 40  1  0  0  0  0
 21 25  1  0  0  0  0
 21 41  1  0  0  0  0
 21 42  1  0  0  0  0
 21 43  1  0  0  0  0
 23 44  1  0  0  0  0
M  END
>  <name>
4,5-bis(4-methoxyphenyl)-2-thiophen-2-yl-1H-imidazole

>  <score>
1.252

>  <target>


$$$$
DB08047
 OpenBabel11241310543D

 37 39  0  0  0  0  0  0  0  0999 V2000
    5.0500    2.8137   -2.1000 C   0  0  0  0  0  0  0  0  0  0  0  0
    3.8432    2.6043   -1.4962 C   0  0  0  0  0  0  0  0  0  0  0  0
    1.1337    2.8408    0.5704 C   0  0  0  0  0  0  0  0  0  0  0  0
    6.0326    1.8319   -2.0754 C   0  0  0  0  0  0  0  0  0  0  0  0
   -0.0699    3.4749    0.7956 C   0  0  0  0  0  0  0  0  0  0  0  0
   -1.2556    1.4927    0.1197 C   0  0  0  0  0  0  0  0  0  0  0  0
    3.5931    1.3890   -0.8540 C   0  0  0  0  0  0  0  0  0  0  0  0
    1.1525    1.5229    0.1162 C   0  0  0  0  0  0  0  0  0  0  0  0
    5.8120    0.6373   -1.4504 C   0  0  0  0  0  0  0  0  0  0  0  0
    4.5887    0.3954   -0.8291 C   0  0  0  0  0  0  0  0  0  0  0  0
   -1.2654    2.8041    0.5712 C   0  0  0  0  0  0  0  0  0  0  0  0
   -0.0521    0.8500   -0.1152 C   0  0  0  0  0  0  0  0  0  0  0  0
    2.4442    0.8391   -0.1266 C   0  0  0  0  0  0  0  0  0  0  0  0
    5.0985   -2.8364    2.3602 C   0  0  0  0  0  0  0  0  0  0  0  0
    5.3774   -1.8947    1.4932 C   0  0  0  0  0  0  0  0  0  0  0  0
    4.7675   -1.9342    0.1157 C   0  0  0  0  0  0  0  0  0  0  0  0
    6.8894   -0.4160   -1.4328 C   0  0  0  0  0  0  0  0  0  0  0  0
    2.7683   -0.3682    0.2690 N   0  0  0  0  0  0  0  0  0  0  0  0
    4.0687   -0.6734   -0.1453 N   0  0  0  0  0  0  0  0  0  0  0  0
   -2.4481    3.4346    0.7950 O   0  0  0  0  0  0  0  0  0  0  0  0
   -0.0407   -0.4344   -0.5573 O   0  0  0  0  0  0  0  0  0  0  0  0
    8.0587    0.1032   -1.9988 F   0  0  0  0  0  0  0  0  0  0  0  0
    7.1424   -0.8023   -0.1122 F   0  0  0  0  0  0  0  0  0  0  0  0
    6.4676   -1.5271   -2.1709 F   0  0  0  0  0  0  0  0  0  0  0  0
    5.2433    3.7520   -2.5985 H   0  0  0  0  0  0  0  0  0  0  0  0
    3.0842    3.3722   -1.5194 H   0  0  0  0  0  0  0  0  0  0  0  0
    2.0615    3.3648    0.7462 H   0  0  0  0  0  0  0  0  0  0  0  0
    6.9823    2.0153   -2.5559 H   0  0  0  0  0  0  0  0  0  0  0  0
   -0.0832    4.4958    1.1479 H   0  0  0  0  0  0  0  0  0  0  0  0
   -2.1871    0.9742   -0.0531 H   0  0  0  0  0  0  0  0  0  0  0  0
    5.5355   -2.8081    3.3473 H   0  0  0  0  0  0  0  0  0  0  0  0
    4.4281   -3.6386    2.0892 H   0  0  0  0  0  0  0  0  0  0  0  0
    6.0443   -1.0901    1.7656 H   0  0  0  0  0  0  0  0  0  0  0  0
    5.5540   -2.0739   -0.6260 H   0  0  0  0  0  0  0  0  0  0  0  0
    4.0599   -2.7611    0.0550 H   0  0  0  0  0  0  0  0  0  0  0  0
   -2.6963    3.8658   -0.0343 H   0  0  0  0  0  0  0  0  0  0  0  0
   -0.0482   -0.3974   -1.5236 H   0  0  0  0  0  0  0  0  0  0  0  0
  1  2  2  0  0  0  0
  1  4  1  0  0  0  0
  1 25  1  0  0  0  0
  2  7  1  0  0  0  0
  2 26  1  0  0  0  0
  3  5  2  0  0  0  0
  3  8  1  0  0  0  0
  3 27  1  0  0  0  0
  4  9  2  0  0  0  0
  4 28  1  0  0  0  0
  5 11  1  0  0  0  0
  5 29  1  0  0  0  0
  6 11  2  0  0  0  0
  6 12  1  0  0  0  0
  6 30  1  0  0  0  0
  7 10  2  0  0  0  0
  7 13  1  0  0  0  0
  8 12  2  0  0  0  0
  8 13  1  0  0  0  0
  9 10  1  0  0  0  0
  9 17  1  0  0  0  0
 10 19  1  0  0  0  0
 11 20  1  0  0  0  0
 12 21  1  0  0  0  0
 13 18  2  0  0  0  0
 14 15  2  0  0  0  0
 14 31  1  0  0  0  0
 14 32  1  0  0  0  0
 15 16  1  0  0  0  0
 15 33  1  0  0  0  0
 16 19  1  0  0  0  0
 16 34  1  0  0  0  0
 16 35  1  0  0  0  0
 17 22  1  0  0  0  0
 17 23  1  0  0  0  0
 17 24  1  0  0  0  0
 18 19  1  0  0  0  0
 20 36  1  0  0  0  0
 21 37  1  0  0  0  0
M  END
>  <name>
4-[1-allyl-7-(trifluoromethyl)-1H-indazol-3-yl]benzene-1,3-diol

>  <score>
1.248

>  <target>
Estrogen receptor

$$$$
DB08182
 OpenBabel11241310543D

 35 37  0  0  0  0  0  0  0  0999 V2000
    5.1677    1.9221   -2.5194 C   0  0  0  0  0  0  0  0  0  0  0  0
    1.1824    3.1286    0.2612 C   0  0  0  0  0  0  0  0  0  0  0  0
    6.0227    0.9455   -2.0263 C   0  0  0  0  0  0  0  0  0  0  0  0
   -0.0740    3.6992    0.2731 C   0  0  0  0  0  0  0  0  0  0  0  0
    2.7674    0.0474    0.8831 C   0  0  0  0  0  0  0  0  0  0  0  0
    3.5903    1.2372   -0.8507 C   0  0  0  0  0  0  0  0  0  0  0  0
    2.4702    1.0679    0.0056 C   0  0  0  0  0  0  0  0  0  0  0  0
    3.9174    2.0809   -1.9244 C   0  0  0  0  0  0  0  0  0  0  0  0
    1.2175    1.7668    0.0415 C   0  0  0  0  0  0  0  0  0  0  0  0
    4.5425    0.3010   -0.4586 C   0  0  0  0  0  0  0  0  0  0  0  0
   -1.0484    1.6832   -0.1187 C   0  0  0  0  0  0  0  0  0  0  0  0
    4.8386    5.1492   -3.2686 C   0  0  0  0  0  0  0  0  0  0  0  0
    3.5015    4.8304   -3.9131 C   0  0  0  0  0  0  0  0  0  0  0  0
    3.1431    3.3588   -3.7747 C   0  0  0  0  0  0  0  0  0  0  0  0
    5.7612    0.1064   -0.9971 N   0  0  0  0  0  0  0  0  0  0  0  0
   -1.2149    3.0038    0.0860 N   0  0  0  0  0  0  0  0  0  0  0  0
    0.1175    1.0101   -0.1528 N   0  0  0  0  0  0  0  0  0  0  0  0
    4.0267   -0.4100    0.5927 N   0  0  0  0  0  0  0  0  0  0  0  0
   -2.2219    0.9232   -0.3175 N   0  0  0  0  0  0  0  0  0  0  0  0
    3.0558    3.0344   -2.3908 O   0  0  0  0  0  0  0  0  0  0  0  0
    5.4717    2.5472   -3.3526 H   0  0  0  0  0  0  0  0  0  0  0  0
    2.0737    3.7240    0.4159 H   0  0  0  0  0  0  0  0  0  0  0  0
    7.0013    0.8079   -2.4786 H   0  0  0  0  0  0  0  0  0  0  0  0
   -0.2019    4.7637    0.4374 H   0  0  0  0  0  0  0  0  0  0  0  0
    2.2004   -0.3980    1.6895 H   0  0  0  0  0  0  0  0  0  0  0  0
    4.8358    4.8817   -2.2070 H   0  0  0  0  0  0  0  0  0  0  0  0
    5.6398    4.5867   -3.7581 H   0  0  0  0  0  0  0  0  0  0  0  0
    5.0710    6.2153   -3.3540 H   0  0  0  0  0  0  0  0  0  0  0  0
    3.5251    5.1051   -4.9745 H   0  0  0  0  0  0  0  0  0  0  0  0
    2.7140    5.4450   -3.4606 H   0  0  0  0  0  0  0  0  0  0  0  0
    2.1773    3.1459   -4.2441 H   0  0  0  0  0  0  0  0  0  0  0  0
    3.9091    2.7253   -4.2332 H   0  0  0  0  0  0  0  0  0  0  0  0
    4.5029   -1.1560    1.0803 H   0  0  0  0  0  0  0  0  0  0  0  0
   -3.1106    1.3750   -0.2522 H   0  0  0  0  0  0  0  0  0  0  0  0
   -2.1467   -0.0672   -0.4258 H   0  0  0  0  0  0  0  0  0  0  0  0
  1  3  2  0  0  0  0
  1  8  1  0  0  0  0
  1 21  1  0  0  0  0
  2  4  2  0  0  0  0
  2  9  1  0  0  0  0
  2 22  1  0  0  0  0
  3 15  1  0  0  0  0
  3 23  1  0  0  0  0
  4 16  1  0  0  0  0
  4 24  1  0  0  0  0
  5  7  2  0  0  0  0
  5 18  1  0  0  0  0
  5 25  1  0  0  0  0
  6  7  1  0  0  0  0
  6  8  2  0  0  0  0
  6 10  1  0  0  0  0
  7  9  1  0  0  0  0
  8 20  1  0  0  0  0
  9 17  2  0  0  0  0
 10 15  2  0  0  0  0
 10 18  1  0  0  0  0
 11 16  2  0  0  0  0
 11 17  1  0  0  0  0
 11 19  1  0  0  0  0
 12 13  1  0  0  0  0
 12 26  1  0  0  0  0
 12 27  1  0  0  0  0
 12 28  1  0  0  0  0
 13 14  1  0  0  0  0
 13 29  1  0  0  0  0
 13 30  1  0  0  0  0
 14 20  1  0  0  0  0
 14 31  1  0  0  0  0
 14 32  1  0  0  0  0
 18 33  1  0  0  0  0
 19 34  1  0  0  0  0
 19 35  1  0  0  0  0
M  END
>  <name>
4-(4-propoxy-1H-pyrrolo[2,3-b]pyridin-3-yl)pyrimidin-2-amine

>  <score>
1.247

>  <target>
Cell division protein kinase 2

$$$$
DB02052
 OpenBabel11241310543D

 32 35  0  0  0  0  0  0  0  0999 V2000
    4.9325   -2.8753    2.6337 C   0  0  0  0  0  0  0  0  0  0  0  0
   -0.5411    3.2569   -0.5054 C   0  0  0  0  0  0  0  0  0  0  0  0
    6.2341   -3.2007    2.2072 C   0  0  0  0  0  0  0  0  0  0  0  0
   -0.9659    2.4563    0.5724 C   0  0  0  0  0  0  0  0  0  0  0  0
    4.2032   -1.8583    2.0084 C   0  0  0  0  0  0  0  0  0  0  0  0
    0.7238    3.0855   -1.0707 C   0  0  0  0  0  0  0  0  0  0  0  0
    6.8317   -2.5159    1.1474 C   0  0  0  0  0  0  0  0  0  0  0  0
   -0.1335    1.4671    1.1082 C   0  0  0  0  0  0  0  0  0  0  0  0
    4.8013   -1.1849    0.9603 C   0  0  0  0  0  0  0  0  0  0  0  0
    1.5260    2.1036   -0.5254 C   0  0  0  0  0  0  0  0  0  0  0  0
    6.0943   -1.5157    0.5444 C   0  0  0  0  0  0  0  0  0  0  0  0
    1.1167    1.2989    0.5483 C   0  0  0  0  0  0  0  0  0  0  0  0
    4.3698   -0.0983    0.0874 C   0  0  0  0  0  0  0  0  0  0  0  0
    2.8892    1.6688   -0.8764 C   0  0  0  0  0  0  0  0  0  0  0  0
    3.2075    0.5575    0.0885 C   0  0  0  0  0  0  0  0  0  0  0  0
    5.4830    0.2003   -0.8749 C   0  0  0  0  0  0  0  0  0  0  0  0
    3.5822    2.1881   -1.8226 N   0  0  0  0  0  0  0  0  0  0  0  0
    2.1126    0.3961    0.8986 N   0  0  0  0  0  0  0  0  0  0  0  0
    6.4893   -0.7060   -0.5263 N   0  0  0  0  0  0  0  0  0  0  0  0
    5.4827    1.0455   -1.7507 O   0  0  0  0  0  0  0  0  0  0  0  0
    2.8277    3.1987   -2.4271 O   0  0  0  0  0  0  0  0  0  0  0  0
    4.4900   -3.4233    3.4615 H   0  0  0  0  0  0  0  0  0  0  0  0
   -1.2095    4.0175   -0.9006 H   0  0  0  0  0  0  0  0  0  0  0  0
    6.7787   -3.9945    2.7118 H   0  0  0  0  0  0  0  0  0  0  0  0
   -1.9555    2.6115    0.9943 H   0  0  0  0  0  0  0  0  0  0  0  0
    3.2016   -1.6151    2.3449 H   0  0  0  0  0  0  0  0  0  0  0  0
    1.0509    3.7001   -1.9008 H   0  0  0  0  0  0  0  0  0  0  0  0
    7.8340   -2.7654    0.8188 H   0  0  0  0  0  0  0  0  0  0  0  0
   -0.4695    0.8555    1.9382 H   0  0  0  0  0  0  0  0  0  0  0  0
    2.0582   -0.2847    1.6377 H   0  0  0  0  0  0  0  0  0  0  0  0
    7.3885   -0.7683   -0.9893 H   0  0  0  0  0  0  0  0  0  0  0  0
    3.4362    3.5170   -3.1154 H   0  0  0  0  0  0  0  0  0  0  0  0
  1  3  2  0  0  0  0
  1  5  1  0  0  0  0
  1 22  1  0  0  0  0
  2  4  2  0  0  0  0
  2  6  1  0  0  0  0
  2 23  1  0  0  0  0
  3  7  1  0  0  0  0
  3 24  1  0  0  0  0
  4  8  1  0  0  0  0
  4 25  1  0  0  0  0
  5  9  2  0  0  0  0
  5 26  1  0  0  0  0
  6 10  2  0  0  0  0
  6 27  1  0  0  0  0
  7 11  2  0  0  0  0
  7 28  1  0  0  0  0
  8 12  2  0  0  0  0
  8 29  1  0  0  0  0
  9 11  1  0  0  0  0
  9 13  1  0  0  0  0
 10 12  1  0  0  0  0
 10 14  1  0  0  0  0
 11 19  1  0  0  0  0
 12 18  1  0  0  0  0
 13 15  2  0  0  0  0
 13 16  1  0  0  0  0
 14 15  1  0  0  0  0
 14 17  2  0  0  0  0
 15 18  1  0  0  0  0
 16 19  1  0  0  0  0
 16 20  2  0  0  0  0
 17 21  1  0  0  0  0
 18 30  1  0  0  0  0
 19 31  1  0  0  0  0
 21 32  1  0  0  0  0
M  END
>  <name>
Indirubin-3'-Monoxime

>  <score>
1.247

>  <target>
Cell division protein kinase 5
Cell division control protein 2 homolog
D-HSCDK2
Glycogen synthase kinase-3 beta
Cyclin-dependent kinase 5 activator 1

$$$$
DB04163
 OpenBabel11241310543D

 31 33  0  0  0  0  0  0  0  0999 V2000
    5.3105   -3.4542    2.8749 C   0  0  0  0  0  0  0  0  0  0  0  0
    5.0078   -3.7383    1.5557 C   0  0  0  0  0  0  0  0  0  0  0  0
    5.8512   -2.2275    3.2151 C   0  0  0  0  0  0  0  0  0  0  0  0
    2.2789    0.6832    0.4508 C   0  0  0  0  0  0  0  0  0  0  0  0
    1.9958    1.6378   -0.4830 C   0  0  0  0  0  0  0  0  0  0  0  0
    5.2450   -2.7976    0.5731 C   0  0  0  0  0  0  0  0  0  0  0  0
    6.0964   -1.2841    2.2369 C   0  0  0  0  0  0  0  0  0  0  0  0
    3.5244    0.0716    0.4974 C   0  0  0  0  0  0  0  0  0  0  0  0
    4.2479    1.4049   -1.3716 C   0  0  0  0  0  0  0  0  0  0  0  0
    2.9741    2.0217   -1.4087 C   0  0  0  0  0  0  0  0  0  0  0  0
    5.7885   -1.5641    0.9111 C   0  0  0  0  0  0  0  0  0  0  0  0
    4.5154    0.4202   -0.4038 C   0  0  0  0  0  0  0  0  0  0  0  0
    5.2165    1.8055   -2.3204 C   0  0  0  0  0  0  0  0  0  0  0  0
    3.6779    3.2954   -3.2023 C   0  0  0  0  0  0  0  0  0  0  0  0
    2.7376    2.9589   -2.3400 N   0  0  0  0  0  0  0  0  0  0  0  0
    4.8866    2.7404   -3.2009 N   0  0  0  0  0  0  0  0  0  0  0  0
    6.4734    1.2383   -2.3296 N   0  0  0  0  0  0  0  0  0  0  0  0
    3.3951    4.2655   -4.1466 N   0  0  0  0  0  0  0  0  0  0  0  0
    6.0935   -0.3609   -0.3394 S   0  0  0  0  0  0  0  0  0  0  0  0
    5.1239   -4.1919    3.6413 H   0  0  0  0  0  0  0  0  0  0  0  0
    4.5849   -4.6970    1.2937 H   0  0  0  0  0  0  0  0  0  0  0  0
    6.0862   -2.0089    4.2462 H   0  0  0  0  0  0  0  0  0  0  0  0
    1.5196    0.3958    1.1630 H   0  0  0  0  0  0  0  0  0  0  0  0
    1.0209    2.1019   -0.5030 H   0  0  0  0  0  0  0  0  0  0  0  0
    5.0080   -3.0200   -0.4568 H   0  0  0  0  0  0  0  0  0  0  0  0
    6.5187   -0.3264    2.5033 H   0  0  0  0  0  0  0  0  0  0  0  0
    3.7218   -0.6836    1.2437 H   0  0  0  0  0  0  0  0  0  0  0  0
    6.8788    0.9713   -3.1693 H   0  0  0  0  0  0  0  0  0  0  0  0
    6.9521    1.1064   -1.4962 H   0  0  0  0  0  0  0  0  0  0  0  0
    4.0719    4.5279   -4.7900 H   0  0  0  0  0  0  0  0  0  0  0  0
    2.5199    4.6833   -4.1655 H   0  0  0  0  0  0  0  0  0  0  0  0
  1  2  2  0  0  0  0
  1  3  1  0  0  0  0
  1 20  1  0  0  0  0
  2  6  1  0  0  0  0
  2 21  1  0  0  0  0
  3  7  2  0  0  0  0
  3 22  1  0  0  0  0
  4  5  2  0  0  0  0
  4  8  1  0  0  0  0
  4 23  1  0  0  0  0
  5 10  1  0  0  0  0
  5 24  1  0  0  0  0
  6 11  2  0  0  0  0
  6 25  1  0  0  0  0
  7 11  1  0  0  0  0
  7 26  1  0  0  0  0
  8 12  2  0  0  0  0
  8 27  1  0  0  0  0
  9 10  2  0  0  0  0
  9 12  1  0  0  0  0
  9 13  1  0  0  0  0
 10 15  1  0  0  0  0
 11 19  1  0  0  0  0
 12 19  1  0  0  0  0
 13 16  2  0  0  0  0
 13 17  1  0  0  0  0
 14 15  2  0  0  0  0
 14 16  1  0  0  0  0
 14 18  1  0  0  0  0
 17 28  1  0  0  0  0
 17 29  1  0  0  0  0
 18 30  1  0  0  0  0
 18 31  1  0  0  0  0
M  END
>  <name>
5-Phenylsulfanyl-2,4-Quinazolinediamine

>  <score>
1.241

>  <target>
Dihydrofolate reductase

$$$$
DB03490
 OpenBabel11241310543D

 29 32  0  0  0  0  0  0  0  0999 V2000
   -0.4562    3.5231   -0.8318 C   0  0  0  0  0  0  0  0  0  0  0  0
   -1.0860    2.8717    0.2135 C   0  0  0  0  0  0  0  0  0  0  0  0
    0.8208    3.1613   -1.2069 C   0  0  0  0  0  0  0  0  0  0  0  0
   -0.4371    1.8526    0.8875 C   0  0  0  0  0  0  0  0  0  0  0  0
    4.8207   -1.1179    2.1934 C   0  0  0  0  0  0  0  0  0  0  0  0
    5.5855   -2.1211    0.1505 C   0  0  0  0  0  0  0  0  0  0  0  0
    5.4157   -2.1599    2.8736 C   0  0  0  0  0  0  0  0  0  0  0  0
    6.1558   -3.1216    0.9096 C   0  0  0  0  0  0  0  0  0  0  0  0
    1.4817    2.1342   -0.5309 C   0  0  0  0  0  0  0  0  0  0  0  0
    4.9029   -1.0845    0.7968 C   0  0  0  0  0  0  0  0  0  0  0  0
    0.8402    1.4842    0.5191 C   0  0  0  0  0  0  0  0  0  0  0  0
    3.0352    0.5302    0.2195 C   0  0  0  0  0  0  0  0  0  0  0  0
    2.8346    1.5522   -0.7218 C   0  0  0  0  0  0  0  0  0  0  0  0
    4.2803    0.0132    0.0247 C   0  0  0  0  0  0  0  0  0  0  0  0
    1.7824    0.4340    1.0545 C   0  0  0  0  0  0  0  0  0  0  0  0
    6.0547   -3.1150    2.2252 N   0  0  0  0  0  0  0  0  0  0  0  0
    3.9251    1.6468   -1.4597 N   0  0  0  0  0  0  0  0  0  0  0  0
    4.8479    0.6931   -1.0129 N   0  0  0  0  0  0  0  0  0  0  0  0
   -0.9661    4.3180   -1.3558 H   0  0  0  0  0  0  0  0  0  0  0  0
   -2.0858    3.1589    0.5037 H   0  0  0  0  0  0  0  0  0  0  0  0
    1.3094    3.6728   -2.0231 H   0  0  0  0  0  0  0  0  0  0  0  0
   -0.9311    1.3450    1.7029 H   0  0  0  0  0  0  0  0  0  0  0  0
    4.2994   -0.3394    2.7307 H   0  0  0  0  0  0  0  0  0  0  0  0
    5.6718   -2.1331   -0.9260 H   0  0  0  0  0  0  0  0  0  0  0  0
    5.3579   -2.1943    3.9515 H   0  0  0  0  0  0  0  0  0  0  0  0
    6.6884   -3.9235    0.4203 H   0  0  0  0  0  0  0  0  0  0  0  0
    1.3382   -0.5560    0.9513 H   0  0  0  0  0  0  0  0  0  0  0  0
    2.0127    0.6351    2.1007 H   0  0  0  0  0  0  0  0  0  0  0  0
    5.7329    0.5401   -1.3793 H   0  0  0  0  0  0  0  0  0  0  0  0
  1  2  2  0  0  0  0
  1  3  1  0  0  0  0
  1 19  1  0  0  0  0
  2  4  1  0  0  0  0
  2 20  1  0  0  0  0
  3  9  2  0  0  0  0
  3 21  1  0  0  0  0
  4 11  2  0  0  0  0
  4 22  1  0  0  0  0
  5  7  2  0  0  0  0
  5 10  1  0  0  0  0
  5 23  1  0  0  0  0
  6  8  1  0  0  0  0
  6 10  2  0  0  0  0
  6 24  1  0  0  0  0
  7 16  1  0  0  0  0
  7 25  1  0  0  0  0
  8 16  2  0  0  0  0
  8 26  1  0  0  0  0
  9 11  1  0  0  0  0
  9 13  1  0  0  0  0
 10 14  1  0  0  0  0
 11 15  1  0  0  0  0
 12 13  1  0  0  0  0
 12 14  2  0  0  0  0
 12 15  1  0  0  0  0
 13 17  2  0  0  0  0
 14 18  1  0  0  0  0
 15 27  1  0  0  0  0
 15 28  1  0  0  0  0
 17 18  1  0  0  0  0
 18 29  1  0  0  0  0
M  END
>  <name>
3-Pyridin-4-Yl-2,4-Dihydro-Indeno[1,2-.C.]Pyrazole

>  <score>
1.233

>  <target>


$$$$
DB08191
 OpenBabel11241310543D

 37 40  0  0  0  0  0  0  0  0999 V2000
   -1.4562    2.7869    0.5171 C   0  0  0  0  0  0  0  0  0  0  0  0
   -1.2665    1.8125   -0.4627 C   0  0  0  0  0  0  0  0  0  0  0  0
   -0.3550    3.4223    1.0913 C   0  0  0  0  0  0  0  0  0  0  0  0
    0.0243    1.4733   -0.8685 C   0  0  0  0  0  0  0  0  0  0  0  0
    0.9357    3.0831    0.6856 C   0  0  0  0  0  0  0  0  0  0  0  0
    5.6665   -2.8227    0.5212 C   0  0  0  0  0  0  0  0  0  0  0  0
    5.3394   -1.1113    2.1949 C   0  0  0  0  0  0  0  0  0  0  0  0
    5.6841   -3.7962    1.5199 C   0  0  0  0  0  0  0  0  0  0  0  0
    5.3570   -2.0848    3.1937 C   0  0  0  0  0  0  0  0  0  0  0  0
    3.1624    0.7388   -0.0707 C   0  0  0  0  0  0  0  0  0  0  0  0
    3.0735    2.4254   -1.7675 C   0  0  0  0  0  0  0  0  0  0  0  0
    6.5436   -0.2691   -1.0148 C   0  0  0  0  0  0  0  0  0  0  0  0
    4.4574    0.4435   -0.5262 C   0  0  0  0  0  0  0  0  0  0  0  0
    1.1253    2.1087   -0.2943 C   0  0  0  0  0  0  0  0  0  0  0  0
    5.4942   -1.4802    0.8586 C   0  0  0  0  0  0  0  0  0  0  0  0
    2.4623    1.7573   -0.7150 C   0  0  0  0  0  0  0  0  0  0  0  0
    5.4760   -0.4791   -0.1687 C   0  0  0  0  0  0  0  0  0  0  0  0
    5.5293   -3.4272    2.8562 C   0  0  0  0  0  0  0  0  0  0  0  0
    4.9479    1.1926   -1.5917 C   0  0  0  0  0  0  0  0  0  0  0  0
    5.5459   -4.4550    3.9096 C   0  0  0  0  0  0  0  0  0  0  0  0
    4.3156    2.1841   -2.2477 N   0  0  0  0  0  0  0  0  0  0  0  0
    6.2125    0.7472   -1.8732 N   0  0  0  0  0  0  0  0  0  0  0  0
    5.4013   -4.0883    5.1357 O   0  0  0  0  0  0  0  0  0  0  0  0
    5.7049   -5.6874    3.5709 O   0  0  0  0  0  0  0  0  0  0  0  0
   -2.4613    3.0520    0.8316 H   0  0  0  0  0  0  0  0  0  0  0  0
   -2.1238    1.3189   -0.9110 H   0  0  0  0  0  0  0  0  0  0  0  0
   -0.5021    4.1821    1.8532 H   0  0  0  0  0  0  0  0  0  0  0  0
    0.1556    0.7119   -1.6336 H   0  0  0  0  0  0  0  0  0  0  0  0
    1.7843    3.5874    1.1416 H   0  0  0  0  0  0  0  0  0  0  0  0
    5.7885   -3.1263   -0.5159 H   0  0  0  0  0  0  0  0  0  0  0  0
    5.2037   -0.0691    2.4739 H   0  0  0  0  0  0  0  0  0  0  0  0
    5.8184   -4.8394    1.2460 H   0  0  0  0  0  0  0  0  0  0  0  0
    5.2354   -1.7863    4.2317 H   0  0  0  0  0  0  0  0  0  0  0  0
    2.7266    0.1882    0.7582 H   0  0  0  0  0  0  0  0  0  0  0  0
    2.5527    3.2241   -2.2913 H   0  0  0  0  0  0  0  0  0  0  0  0
    7.5114   -0.7471   -1.0863 H   0  0  0  0  0  0  0  0  0  0  0  0
    6.8097    1.1142   -2.6011 H   0  0  0  0  0  0  0  0  0  0  0  0
  1  2  2  0  0  0  0
  1  3  1  0  0  0  0
  1 25  1  0  0  0  0
  2  4  1  0  0  0  0
  2 26  1  0  0  0  0
  3  5  2  0  0  0  0
  3 27  1  0  0  0  0
  4 14  2  0  0  0  0
  4 28  1  0  0  0  0
  5 14  1  0  0  0  0
  5 29  1  0  0  0  0
  6  8  2  0  0  0  0
  6 15  1  0  0  0  0
  6 30  1  0  0  0  0
  7  9  1  0  0  0  0
  7 15  2  0  0  0  0
  7 31  1  0  0  0  0
  8 18  1  0  0  0  0
  8 32  1  0  0  0  0
  9 18  2  0  0  0  0
  9 33  1  0  0  0  0
 10 13  2  0  0  0  0
 10 16  1  0  0  0  0
 10 34  1  0  0  0  0
 11 16  2  0  0  0  0
 11 21  1  0  0  0  0
 11 35  1  0  0  0  0
 12 17  2  0  0  0  0
 12 22  1  0  0  0  0
 12 36  1  0  0  0  0
 13 17  1  0  0  0  0
 13 19  1  0  0  0  0
 14 16  1  0  0  0  0
 15 17  1  0  0  0  0
 18 20  1  0  0  0  0
 19 21  2  0  0  0  0
 19 22  1  0  0  0  0
 20 23  1  0  0  0  0
 20 24  2  0  0  0  0
 22 37  1  0  0  0  0
M  END
>  <name>
4-(5-phenyl-1H-pyrrolo[2,3-b]pyridin-3-yl)benzoic acid

>  <score>
1.233

>  <target>


$$$$
DB02402
 OpenBabel11241310543D

 35 37  0  0  0  0  0  0  0  0999 V2000
    3.1401   -0.2358    0.9559 C   0  0  0  0  0  0  0  0  0  0  0  0
    4.3879   -0.3446    0.3350 C   0  0  0  0  0  0  0  0  0  0  0  0
    2.2214    0.7095    0.5136 C   0  0  0  0  0  0  0  0  0  0  0  0
    0.2628    3.2642    0.8923 C   0  0  0  0  0  0  0  0  0  0  0  0
   -0.6498    1.6531   -0.6599 C   0  0  0  0  0  0  0  0  0  0  0  0
   -0.9433    3.2720    1.5931 C   0  0  0  0  0  0  0  0  0  0  0  0
   -1.8557    1.6610    0.0410 C   0  0  0  0  0  0  0  0  0  0  0  0
    3.8097    1.4287   -1.1682 C   0  0  0  0  0  0  0  0  0  0  0  0
    4.7460    0.4777   -0.7306 C   0  0  0  0  0  0  0  0  0  0  0  0
    0.4096    2.4547   -0.2342 C   0  0  0  0  0  0  0  0  0  0  0  0
   -2.0025    2.4705    1.1675 C   0  0  0  0  0  0  0  0  0  0  0  0
    2.5530    1.5443   -0.5490 C   0  0  0  0  0  0  0  0  0  0  0  0
    4.2034    2.2318   -2.2347 C   0  0  0  0  0  0  0  0  0  0  0  0
    6.2127    1.1954   -2.3398 C   0  0  0  0  0  0  0  0  0  0  0  0
   -4.2206    1.6349    1.3613 C   0  0  0  0  0  0  0  0  0  0  0  0
    5.9508    0.3583   -1.3156 N   0  0  0  0  0  0  0  0  0  0  0  0
    5.4009    2.1392   -2.8430 N   0  0  0  0  0  0  0  0  0  0  0  0
    3.3365    3.2209   -2.7547 N   0  0  0  0  0  0  0  0  0  0  0  0
    7.4799    1.0654   -2.9490 N   0  0  0  0  0  0  0  0  0  0  0  0
    1.6049    2.4479   -0.9304 O   0  0  0  0  0  0  0  0  0  0  0  0
   -3.1793    2.4784    1.8512 O   0  0  0  0  0  0  0  0  0  0  0  0
    2.8899   -0.8909    1.7852 H   0  0  0  0  0  0  0  0  0  0  0  0
    5.0889   -1.0931    0.7004 H   0  0  0  0  0  0  0  0  0  0  0  0
    1.2538    0.7894    1.0013 H   0  0  0  0  0  0  0  0  0  0  0  0
    1.0835    3.8925    1.2272 H   0  0  0  0  0  0  0  0  0  0  0  0
   -0.5412    1.0213   -1.5372 H   0  0  0  0  0  0  0  0  0  0  0  0
   -1.0514    3.9035    2.4706 H   0  0  0  0  0  0  0  0  0  0  0  0
   -2.6774    1.0348   -0.2954 H   0  0  0  0  0  0  0  0  0  0  0  0
   -5.1030    1.7370    1.9978 H   0  0  0  0  0  0  0  0  0  0  0  0
   -3.8787    0.5969    1.3580 H   0  0  0  0  0  0  0  0  0  0  0  0
   -4.4726    1.9367    0.3419 H   0  0  0  0  0  0  0  0  0  0  0  0
    2.4167    3.3055   -2.3769 H   0  0  0  0  0  0  0  0  0  0  0  0
    3.6275    3.7497   -3.5497 H   0  0  0  0  0  0  0  0  0  0  0  0
    8.1337    0.4084   -2.5760 H   0  0  0  0  0  0  0  0  0  0  0  0
    7.7345    1.6965   -3.6806 H   0  0  0  0  0  0  0  0  0  0  0  0
  1  2  2  0  0  0  0
  1  3  1  0  0  0  0
  1 22  1  0  0  0  0
  2  9  1  0  0  0  0
  2 23  1  0  0  0  0
  3 12  2  0  0  0  0
  3 24  1  0  0  0  0
  4  6  2  0  0  0  0
  4 10  1  0  0  0  0
  4 25  1  0  0  0  0
  5  7  1  0  0  0  0
  5 10  2  0  0  0  0
  5 26  1  0  0  0  0
  6 11  1  0  0  0  0
  6 27  1  0  0  0  0
  7 11  2  0  0  0  0
  7 28  1  0  0  0  0
  8  9  2  0  0  0  0
  8 12  1  0  0  0  0
  8 13  1  0  0  0  0
  9 16  1  0  0  0  0
 10 20  1  0  0  0  0
 11 21  1  0  0  0  0
 12 20  1  0  0  0  0
 13 17  2  0  0  0  0
 13 18  1  0  0  0  0
 14 16  2  0  0  0  0
 14 17  1  0  0  0  0
 14 19  1  0  0  0  0
 15 21  1  0  0  0  0
 15 29  1  0  0  0  0
 15 30  1  0  0  0  0
 15 31  1  0  0  0  0
 18 32  1  0  0  0  0
 18 33  1  0  0  0  0
 19 34  1  0  0  0  0
 19 35  1  0  0  0  0
M  END
>  <name>
5-(4-Methoxyphenoxy)-2,4-Quinazolinediamine

>  <score>
1.232

>  <target>
Dihydrofolate reductase

$$$$
DB07654
 OpenBabel11241310543D

 45 48  0  0  0  0  0  0  0  0999 V2000
    0.0006   -0.3529    2.9401 C   0  0  0  0  0  0  0  0  0  0  0  0
    5.9637   -3.3525    2.5251 C   0  0  0  0  0  0  0  0  0  0  0  0
    0.5813    0.9150    2.9097 C   0  0  0  0  0  0  0  0  0  0  0  0
    0.4537   -1.3483    2.0743 C   0  0  0  0  0  0  0  0  0  0  0  0
    5.5834   -2.1609    3.1424 C   0  0  0  0  0  0  0  0  0  0  0  0
    5.8041   -3.5064    1.1480 C   0  0  0  0  0  0  0  0  0  0  0  0
    1.6150    1.1874    2.0137 C   0  0  0  0  0  0  0  0  0  0  0  0
    1.4873   -1.0759    1.1782 C   0  0  0  0  0  0  0  0  0  0  0  0
    5.0436   -1.1232    2.3826 C   0  0  0  0  0  0  0  0  0  0  0  0
    5.2642   -2.4688    0.3882 C   0  0  0  0  0  0  0  0  0  0  0  0
    4.0966    2.8882   -2.8577 C   0  0  0  0  0  0  0  0  0  0  0  0
    3.2162    1.4266   -0.8164 C   0  0  0  0  0  0  0  0  0  0  0  0
    2.0680    0.1919    1.1479 C   0  0  0  0  0  0  0  0  0  0  0  0
    4.8840   -1.2771    1.0054 C   0  0  0  0  0  0  0  0  0  0  0  0
    3.1313    0.4720    0.2258 C   0  0  0  0  0  0  0  0  0  0  0  0
    4.3282   -0.2066    0.2219 C   0  0  0  0  0  0  0  0  0  0  0  0
    2.4002    2.4159   -1.3597 C   0  0  0  0  0  0  0  0  0  0  0  0
    4.4723    1.2633   -1.3919 C   0  0  0  0  0  0  0  0  0  0  0  0
    0.7673    3.9601   -0.3066 C   0  0  0  0  0  0  0  0  0  0  0  0
    0.1126    1.6069   -0.8381 C   0  0  0  0  0  0  0  0  0  0  0  0
   -1.0723    2.0239   -1.6899 C   0  0  0  0  0  0  0  0  0  0  0  0
    2.8533    3.1560   -2.3978 N   0  0  0  0  0  0  0  0  0  0  0  0
    4.9776    1.9652   -2.4216 N   0  0  0  0  0  0  0  0  0  0  0  0
    1.1128    2.6584   -0.8473 N   0  0  0  0  0  0  0  0  0  0  0  0
    5.1475    0.2644   -0.7543 O   0  0  0  0  0  0  0  0  0  0  0  0
   -2.0337    0.9763   -1.7068 O   0  0  0  0  0  0  0  0  0  0  0  0
   -0.8035   -0.5655    3.6384 H   0  0  0  0  0  0  0  0  0  0  0  0
    6.3846   -4.1603    3.1167 H   0  0  0  0  0  0  0  0  0  0  0  0
    0.2297    1.6898    3.5846 H   0  0  0  0  0  0  0  0  0  0  0  0
    0.0022   -2.3358    2.0989 H   0  0  0  0  0  0  0  0  0  0  0  0
    5.7075   -2.0413    4.2149 H   0  0  0  0  0  0  0  0  0  0  0  0
    6.1013   -4.4340    0.6672 H   0  0  0  0  0  0  0  0  0  0  0  0
    2.0575    2.1808    2.0022 H   0  0  0  0  0  0  0  0  0  0  0  0
    1.8292   -1.8628    0.5098 H   0  0  0  0  0  0  0  0  0  0  0  0
    4.7545   -0.1995    2.8781 H   0  0  0  0  0  0  0  0  0  0  0  0
    5.1453   -2.6047   -0.6842 H   0  0  0  0  0  0  0  0  0  0  0  0
    4.4291    3.4991   -3.6901 H   0  0  0  0  0  0  0  0  0  0  0  0
   -0.2688    3.9593    0.0418 H   0  0  0  0  0  0  0  0  0  0  0  0
    0.8797    4.7303   -1.0746 H   0  0  0  0  0  0  0  0  0  0  0  0
    1.4213    4.2057    0.5344 H   0  0  0  0  0  0  0  0  0  0  0  0
   -0.1878    1.4284    0.1993 H   0  0  0  0  0  0  0  0  0  0  0  0
    0.5697    0.6978   -1.2402 H   0  0  0  0  0  0  0  0  0  0  0  0
   -0.7489    2.2021   -2.7202 H   0  0  0  0  0  0  0  0  0  0  0  0
   -1.5471    2.9313   -1.3028 H   0  0  0  0  0  0  0  0  0  0  0  0
   -2.7708    1.2822   -2.2594 H   0  0  0  0  0  0  0  0  0  0  0  0
  1  3  2  0  0  0  0
  1  4  1  0  0  0  0
  1 27  1  0  0  0  0
  2  5  2  0  0  0  0
  2  6  1  0  0  0  0
  2 28  1  0  0  0  0
  3  7  1  0  0  0  0
  3 29  1  0  0  0  0
  4  8  2  0  0  0  0
  4 30  1  0  0  0  0
  5  9  1  0  0  0  0
  5 31  1  0  0  0  0
  6 10  2  0  0  0  0
  6 32  1  0  0  0  0
  7 13  2  0  0  0  0
  7 33  1  0  0  0  0
  8 13  1  0  0  0  0
  8 34  1  0  0  0  0
  9 14  2  0  0  0  0
  9 35  1  0  0  0  0
 10 14  1  0  0  0  0
 10 36  1  0  0  0  0
 11 22  2  0  0  0  0
 11 23  1  0  0  0  0
 11 37  1  0  0  0  0
 12 15  1  0  0  0  0
 12 17  2  0  0  0  0
 12 18  1  0  0  0  0
 13 15  1  0  0  0  0
 14 16  1  0  0  0  0
 15 16  2  0  0  0  0
 16 25  1  0  0  0  0
 17 22  1  0  0  0  0
 17 24  1  0  0  0  0
 18 23  2  0  0  0  0
 18 25  1  0  0  0  0
 19 24  1  0  0  0  0
 19 38  1  0  0  0  0
 19 39  1  0  0  0  0
 19 40  1  0  0  0  0
 20 21  1  0  0  0  0
 20 24  1  0  0  0  0
 20 41  1  0  0  0  0
 20 42  1  0  0  0  0
 21 26  1  0  0  0  0
 21 43  1  0  0  0  0
 21 44  1  0  0  0  0
 26 45  1  0  0  0  0
M  END
>  <name>
(5,6-DIPHENYL-FURO[2,3-D]PYRIMIDIN-4-YLAMINO)-ACETIC

>  <score>
1.232

>  <target>


$$$$
DB07655
 OpenBabel11241310543D

 43 46  0  0  0  0  0  0  0  0999 V2000
   -1.2195    3.1061    0.0483 C   0  0  0  0  0  0  0  0  0  0  0  0
    0.6616   -1.6989    3.9425 C   0  0  0  0  0  0  0  0  0  0  0  0
   -0.0388    3.8242    0.2377 C   0  0  0  0  0  0  0  0  0  0  0  0
   -1.1702    1.7313   -0.1829 C   0  0  0  0  0  0  0  0  0  0  0  0
    0.9508   -0.3349    3.9820 C   0  0  0  0  0  0  0  0  0  0  0  0
    1.0907   -2.4719    2.8636 C   0  0  0  0  0  0  0  0  0  0  0  0
    1.1912    3.1676    0.1958 C   0  0  0  0  0  0  0  0  0  0  0  0
    0.0598    1.0748   -0.2249 C   0  0  0  0  0  0  0  0  0  0  0  0
    1.6689    0.2561    2.9425 C   0  0  0  0  0  0  0  0  0  0  0  0
    1.8088   -1.8809    1.8241 C   0  0  0  0  0  0  0  0  0  0  0  0
    5.9831    1.1393   -2.1439 C   0  0  0  0  0  0  0  0  0  0  0  0
    3.6136    1.3229   -0.9433 C   0  0  0  0  0  0  0  0  0  0  0  0
    1.2405    1.7929   -0.0355 C   0  0  0  0  0  0  0  0  0  0  0  0
    2.0981   -0.5170    1.8635 C   0  0  0  0  0  0  0  0  0  0  0  0
    2.5082    1.1158   -0.0790 C   0  0  0  0  0  0  0  0  0  0  0  0
    2.8436    0.0959    0.7861 C   0  0  0  0  0  0  0  0  0  0  0  0
    4.5946    0.4116   -0.5718 C   0  0  0  0  0  0  0  0  0  0  0  0
    3.9196    2.1718   -2.0060 C   0  0  0  0  0  0  0  0  0  0  0  0
    3.3752    4.2754   -3.2323 C   0  0  0  0  0  0  0  0  0  0  0  0
    3.5249    3.8785   -4.6895 C   0  0  0  0  0  0  0  0  0  0  0  0
    5.8080    0.2651   -1.1321 N   0  0  0  0  0  0  0  0  0  0  0  0
    5.1254    2.0738   -2.6121 N   0  0  0  0  0  0  0  0  0  0  0  0
    4.1118   -0.3246    0.4772 N   0  0  0  0  0  0  0  0  0  0  0  0
    2.9956    3.1313   -2.4593 N   0  0  0  0  0  0  0  0  0  0  0  0
    4.5510    2.9014   -4.8097 O   0  0  0  0  0  0  0  0  0  0  0  0
   -2.1774    3.6170    0.0820 H   0  0  0  0  0  0  0  0  0  0  0  0
    0.1029   -2.1592    4.7523 H   0  0  0  0  0  0  0  0  0  0  0  0
   -0.0769    4.8943    0.4190 H   0  0  0  0  0  0  0  0  0  0  0  0
   -2.0897    1.1723   -0.3290 H   0  0  0  0  0  0  0  0  0  0  0  0
    0.6164    0.2668    4.8221 H   0  0  0  0  0  0  0  0  0  0  0  0
    0.8664   -3.5342    2.8334 H   0  0  0  0  0  0  0  0  0  0  0  0
    2.1029    3.7414    0.3453 H   0  0  0  0  0  0  0  0  0  0  0  0
    0.0812    0.0026   -0.4061 H   0  0  0  0  0  0  0  0  0  0  0  0
    1.8887    1.3200    2.9892 H   0  0  0  0  0  0  0  0  0  0  0  0
    2.1353   -2.4969    0.9896 H   0  0  0  0  0  0  0  0  0  0  0  0
    6.9402    1.0865   -2.6519 H   0  0  0  0  0  0  0  0  0  0  0  0
    4.3149    4.6657   -2.8286 H   0  0  0  0  0  0  0  0  0  0  0  0
    2.5954    5.0351   -3.1227 H   0  0  0  0  0  0  0  0  0  0  0  0
    3.8151    4.7483   -5.2870 H   0  0  0  0  0  0  0  0  0  0  0  0
    2.5948    3.4635   -5.0914 H   0  0  0  0  0  0  0  0  0  0  0  0
    4.6168   -1.0641    0.9466 H   0  0  0  0  0  0  0  0  0  0  0  0
    2.0317    2.9886   -2.2174 H   0  0  0  0  0  0  0  0  0  0  0  0
    4.6137    2.6765   -5.7519 H   0  0  0  0  0  0  0  0  0  0  0  0
  1  3  2  0  0  0  0
  1  4  1  0  0  0  0
  1 26  1  0  0  0  0
  2  5  2  0  0  0  0
  2  6  1  0  0  0  0
  2 27  1  0  0  0  0
  3  7  1  0  0  0  0
  3 28  1  0  0  0  0
  4  8  2  0  0  0  0
  4 29  1  0  0  0  0
  5  9  1  0  0  0  0
  5 30  1  0  0  0  0
  6 10  2  0  0  0  0
  6 31  1  0  0  0  0
  7 13  2  0  0  0  0
  7 32  1  0  0  0  0
  8 13  1  0  0  0  0
  8 33  1  0  0  0  0
  9 14  2  0  0  0  0
  9 34  1  0  0  0  0
 10 14  1  0  0  0  0
 10 35  1  0  0  0  0
 11 21  2  0  0  0  0
 11 22  1  0  0  0  0
 11 36  1  0  0  0  0
 12 15  1  0  0  0  0
 12 17  2  0  0  0  0
 12 18  1  0  0  0  0
 13 15  1  0  0  0  0
 14 16  1  0  0  0  0
 15 16  2  0  0  0  0
 16 23  1  0  0  0  0
 17 21  1  0  0  0  0
 17 23  1  0  0  0  0
 18 22  2  0  0  0  0
 18 24  1  0  0  0  0
 19 20  1  0  0  0  0
 19 24  1  0  0  0  0
 19 37  1  0  0  0  0
 19 38  1  0  0  0  0
 20 25  1  0  0  0  0
 20 39  1  0  0  0  0
 20 40  1  0  0  0  0
 23 41  1  0  0  0  0
 24 42  1  0  0  0  0
 25 43  1  0  0  0  0
M  END
>  <name>
3-AMINO-3-BENZYL-[4.3.0]BICYCLO-1,6-DIAZANONAN-2-ONE

>  <score>
1.232

>  <target>


$$$$
DB07047
 OpenBabel11241310543D

 25 26  0  0  0  0  0  0  0  0999 V2000
    3.4172    1.5367   -1.0217 C   0  0  0  0  0  0  0  0  0  0  0  0
   -0.0448    1.1312   -0.0477 C   0  0  0  0  0  0  0  0  0  0  0  0
    4.6328    0.8884   -1.0645 C   0  0  0  0  0  0  0  0  0  0  0  0
   -1.2566    1.7899   -0.0103 C   0  0  0  0  0  0  0  0  0  0  0  0
    2.7037    0.1180    0.7951 C   0  0  0  0  0  0  0  0  0  0  0  0
   -0.1192    3.9035    0.0209 C   0  0  0  0  0  0  0  0  0  0  0  0
    2.4483    1.1570   -0.0906 C   0  0  0  0  0  0  0  0  0  0  0  0
    1.1426    1.8606   -0.0509 C   0  0  0  0  0  0  0  0  0  0  0  0
    3.9365   -0.5370    0.7586 C   0  0  0  0  0  0  0  0  0  0  0  0
    4.9036   -0.1473   -0.1815 C   0  0  0  0  0  0  0  0  0  0  0  0
   -1.2950    3.1735    0.0240 C   0  0  0  0  0  0  0  0  0  0  0  0
    1.0995    3.2537   -0.0111 C   0  0  0  0  0  0  0  0  0  0  0  0
    4.2185   -1.6349    1.6976 C   0  0  0  0  0  0  0  0  0  0  0  0
    5.2976   -2.2100    1.6600 O   0  0  0  0  0  0  0  0  0  0  0  0
    3.3719   -1.9755    2.5125 O   0  0  0  0  0  0  0  0  0  0  0  0
    6.1010   -0.7819   -0.2264 O   0  0  0  0  0  0  0  0  0  0  0  0
   -2.8233    3.9957    0.0703 Cl  0  0  0  0  0  0  0  0  0  0  0  0
    2.5739    4.1700   -0.0149 Cl  0  0  0  0  0  0  0  0  0  0  0  0
    3.2132    2.3424   -1.7114 H   0  0  0  0  0  0  0  0  0  0  0  0
   -0.0165    0.0518   -0.0748 H   0  0  0  0  0  0  0  0  0  0  0  0
    5.3771    1.1875   -1.7875 H   0  0  0  0  0  0  0  0  0  0  0  0
   -2.1771    1.2250   -0.0081 H   0  0  0  0  0  0  0  0  0  0  0  0
    1.9548   -0.1764    1.5156 H   0  0  0  0  0  0  0  0  0  0  0  0
   -0.1543    4.9826    0.0474 H   0  0  0  0  0  0  0  0  0  0  0  0
    6.0029   -1.5207   -0.8425 H   0  0  0  0  0  0  0  0  0  0  0  0
  1  3  2  0  0  0  0
  1  7  1  0  0  0  0
  1 19  1  0  0  0  0
  2  4  2  0  0  0  0
  2  8  1  0  0  0  0
  2 20  1  0  0  0  0
  3 10  1  0  0  0  0
  3 21  1  0  0  0  0
  4 11  1  0  0  0  0
  4 22  1  0  0  0  0
  5  7  2  0  0  0  0
  5  9  1  0  0  0  0
  5 23  1  0  0  0  0
  6 11  2  0  0  0  0
  6 12  1  0  0  0  0
  6 24  1  0  0  0  0
  7  8  1  0  0  0  0
  8 12  2  0  0  0  0
  9 10  2  0  0  0  0
  9 13  1  0  0  0  0
 10 16  1  0  0  0  0
 11 17  1  0  0  0  0
 12 18  1  0  0  0  0
 13 14  1  0  0  0  0
 13 15  2  0  0  0  0
 16 25  1  0  0  0  0
M  END
>  <name>
2',4'-DICHLORO-4-HYDROXY-1,1'-BIPHENYL-3-CARBOXYLIC ACID

>  <score>
1.229

>  <target>


$$$$
DB03865
 OpenBabel11241310543D

 43 46  0  0  0  0  0  0  0  0999 V2000
   -1.3162    2.7700    0.4510 C   0  0  0  0  0  0  0  0  0  0  0  0
   -1.1384    1.4033    0.3322 C   0  0  0  0  0  0  0  0  0  0  0  0
   -0.2320    3.6242    0.3604 C   0  0  0  0  0  0  0  0  0  0  0  0
    4.6529    1.2025   -1.4111 C   0  0  0  0  0  0  0  0  0  0  0  0
    0.1233    0.8846    0.1229 C   0  0  0  0  0  0  0  0  0  0  0  0
    1.0351    3.1160    0.1576 C   0  0  0  0  0  0  0  0  0  0  0  0
    3.3872    1.7136   -1.1995 C   0  0  0  0  0  0  0  0  0  0  0  0
    5.1286    0.1685   -0.6292 C   0  0  0  0  0  0  0  0  0  0  0  0
    6.5650   -4.5634    2.0953 C   0  0  0  0  0  0  0  0  0  0  0  0
    5.5790   -2.5210    0.7681 C   0  0  0  0  0  0  0  0  0  0  0  0
    5.3556   -3.3302    4.2932 C   0  0  0  0  0  0  0  0  0  0  0  0
    5.8649   -3.3696    1.9251 C   0  0  0  0  0  0  0  0  0  0  0  0
    1.2193    1.7404    0.0314 C   0  0  0  0  0  0  0  0  0  0  0  0
    2.5778    1.1888   -0.1935 C   0  0  0  0  0  0  0  0  0  0  0  0
    4.3323   -0.3687    0.3827 C   0  0  0  0  0  0  0  0  0  0  0  0
    6.6532   -5.1288    3.3630 C   0  0  0  0  0  0  0  0  0  0  0  0
    5.2542   -2.7466    3.0326 C   0  0  0  0  0  0  0  0  0  0  0  0
    3.0472    0.1398    0.5991 C   0  0  0  0  0  0  0  0  0  0  0  0
    6.0416   -4.4991    4.4569 C   0  0  0  0  0  0  0  0  0  0  0  0
    4.8425   -1.4757    1.2191 C   0  0  0  0  0  0  0  0  0  0  0  0
    7.3967   -6.3904    3.5585 C   0  0  0  0  0  0  0  0  0  0  0  0
    4.6431   -1.6027    2.5750 N   0  0  0  0  0  0  0  0  0  0  0  0
    7.0668   -7.4738    2.8565 N   0  0  0  0  0  0  0  0  0  0  0  0
    8.3973   -6.4449    4.4368 N   0  0  0  0  0  0  0  0  0  0  0  0
    2.2647   -0.3771    1.5809 O   0  0  0  0  0  0  0  0  0  0  0  0
    6.1579   -5.2133    6.0349 Cl  0  0  0  0  0  0  0  0  0  0  0  0
   -2.3053    3.1715    0.6146 H   0  0  0  0  0  0  0  0  0  0  0  0
   -1.9886    0.7410    0.4029 H   0  0  0  0  0  0  0  0  0  0  0  0
   -0.3767    4.6904    0.4533 H   0  0  0  0  0  0  0  0  0  0  0  0
    5.2744    1.6143   -2.1926 H   0  0  0  0  0  0  0  0  0  0  0  0
    0.2609   -0.1825    0.0300 H   0  0  0  0  0  0  0  0  0  0  0  0
    1.8810    3.7839    0.0875 H   0  0  0  0  0  0  0  0  0  0  0  0
    3.0238    2.5229   -1.8154 H   0  0  0  0  0  0  0  0  0  0  0  0
    6.1195   -0.2251   -0.8011 H   0  0  0  0  0  0  0  0  0  0  0  0
    7.0349   -5.0446    1.2503 H   0  0  0  0  0  0  0  0  0  0  0  0
    5.8944   -2.6939   -0.2502 H   0  0  0  0  0  0  0  0  0  0  0  0
    4.8894   -2.8565    5.1443 H   0  0  0  0  0  0  0  0  0  0  0  0
    4.1453   -0.9785    3.1258 H   0  0  0  0  0  0  0  0  0  0  0  0
    7.6039   -8.2786    2.9255 H   0  0  0  0  0  0  0  0  0  0  0  0
    6.2895   -7.4576    2.2764 H   0  0  0  0  0  0  0  0  0  0  0  0
    8.6374   -5.6562    4.9479 H   0  0  0  0  0  0  0  0  0  0  0  0
    8.8854   -7.2731    4.5651 H   0  0  0  0  0  0  0  0  0  0  0  0
    1.7532   -1.0944    1.1820 H   0  0  0  0  0  0  0  0  0  0  0  0
  1  2  2  0  0  0  0
  1  3  1  0  0  0  0
  1 27  1  0  0  0  0
  2  5  1  0  0  0  0
  2 28  1  0  0  0  0
  3  6  2  0  0  0  0
  3 29  1  0  0  0  0
  4  7  2  0  0  0  0
  4  8  1  0  0  0  0
  4 30  1  0  0  0  0
  5 13  2  0  0  0  0
  5 31  1  0  0  0  0
  6 13  1  0  0  0  0
  6 32  1  0  0  0  0
  7 14  1  0  0  0  0
  7 33  1  0  0  0  0
  8 15  2  0  0  0  0
  8 34  1  0  0  0  0
  9 12  2  0  0  0  0
  9 16  1  0  0  0  0
  9 35  1  0  0  0  0
 10 12  1  0  0  0  0
 10 20  2  0  0  0  0
 10 36  1  0  0  0  0
 11 17  2  0  0  0  0
 11 19  1  0  0  0  0
 11 37  1  0  0  0  0
 12 17  1  0  0  0  0
 13 14  1  0  0  0  0
 14 18  2  0  0  0  0
 15 18  1  0  0  0  0
 15 20  1  0  0  0  0
 16 19  2  0  0  0  0
 16 21  1  0  0  0  0
 17 22  1  0  0  0  0
 18 25  1  0  0  0  0
 19 26  1  0  0  0  0
 20 22  1  0  0  0  0
 21 23  1  0  0  0  0
 21 24  2  0  0  0  0
 22 38  1  0  0  0  0
 23 39  1  0  0  0  0
 23 40  1  0  0  0  0
 24 41  1  0  0  0  0
 24 42  1  0  0  0  0
 25 43  1  0  0  0  0
M  END
>  <name>
6-Chloro-2-(2-Hydroxy-Biphenyl-3-Yl)-1h-Indole-5-Carboxamidine

>  <score>
1.228

>  <target>
Prothrombin
Trypsin-1
Urokinase-type plasminogen activator

$$$$
DB08232
 OpenBabel11241310543D

 45 48  0  0  0  0  0  0  0  0999 V2000
    5.4154   -2.0970    2.9675 C   0  0  0  0  0  0  0  0  0  0  0  0
    4.8940   -1.0659    2.2121 C   0  0  0  0  0  0  0  0  0  0  0  0
   -1.3832    4.4924    0.1018 C   0  0  0  0  0  0  0  0  0  0  0  0
    5.9861   -3.1928    2.3460 C   0  0  0  0  0  0  0  0  0  0  0  0
   -2.6992    4.2278    0.4275 C   0  0  0  0  0  0  0  0  0  0  0  0
    5.1413    0.5360   -1.0220 C   0  0  0  0  0  0  0  0  0  0  0  0
    3.3522    2.0448   -1.5399 C   0  0  0  0  0  0  0  0  0  0  0  0
    5.5145   -2.2403    0.2002 C   0  0  0  0  0  0  0  0  0  0  0  0
    0.1404    1.2498    0.0637 C   0  0  0  0  0  0  0  0  0  0  0  0
    4.9432   -1.1309    0.8211 C   0  0  0  0  0  0  0  0  0  0  0  0
    4.3842   -0.0262    0.0041 C   0  0  0  0  0  0  0  0  0  0  0  0
    2.5800    1.4939   -0.5166 C   0  0  0  0  0  0  0  0  0  0  0  0
    4.6232    1.5643   -1.7853 C   0  0  0  0  0  0  0  0  0  0  0  0
   -0.9670    2.1175    0.2337 C   0  0  0  0  0  0  0  0  0  0  0  0
   -0.4970    3.4230    0.0017 C   0  0  0  0  0  0  0  0  0  0  0  0
    6.0378   -3.2626    0.9653 C   0  0  0  0  0  0  0  0  0  0  0  0
    3.1002    0.4565    0.2646 C   0  0  0  0  0  0  0  0  0  0  0  0
    1.2193    2.0086   -0.2551 C   0  0  0  0  0  0  0  0  0  0  0  0
   -3.1027    2.9105    0.6456 C   0  0  0  0  0  0  0  0  0  0  0  0
    6.2604    3.3132   -2.3487 C   0  0  0  0  0  0  0  0  0  0  0  0
    5.4501    2.1649   -2.8928 C   0  0  0  0  0  0  0  0  0  0  0  0
   -2.2479    1.9094    0.5460 N   0  0  0  0  0  0  0  0  0  0  0  0
    0.8474    3.3316   -0.2966 N   0  0  0  0  0  0  0  0  0  0  0  0
   -4.4277    2.6476    0.9792 N   0  0  0  0  0  0  0  0  0  0  0  0
    6.6508   -4.4383    0.3074 N   0  0  0  0  0  0  0  0  0  0  0  0
    7.0020    3.9395   -3.0863 O   0  0  0  0  0  0  0  0  0  0  0  0
    6.1745    3.6156   -1.1706 O   0  0  0  0  0  0  0  0  0  0  0  0
    7.1091   -5.3433    0.9816 O   0  0  0  0  0  0  0  0  0  0  0  0
    6.6967   -4.5009   -0.9081 O   0  0  0  0  0  0  0  0  0  0  0  0
    2.3563   -0.0860    1.2624 O   0  0  0  0  0  0  0  0  0  0  0  0
    5.3778   -2.0478    4.0456 H   0  0  0  0  0  0  0  0  0  0  0  0
    4.4491   -0.2105    2.6984 H   0  0  0  0  0  0  0  0  0  0  0  0
   -1.0495    5.5049   -0.0715 H   0  0  0  0  0  0  0  0  0  0  0  0
    6.3936   -3.9969    2.9409 H   0  0  0  0  0  0  0  0  0  0  0  0
   -3.4111    5.0354    0.5126 H   0  0  0  0  0  0  0  0  0  0  0  0
    6.1362    0.1664   -1.2213 H   0  0  0  0  0  0  0  0  0  0  0  0
    2.9548    2.8488   -2.1416 H   0  0  0  0  0  0  0  0  0  0  0  0
    5.5551   -2.2959   -0.8776 H   0  0  0  0  0  0  0  0  0  0  0  0
    0.1279    0.1749    0.1693 H   0  0  0  0  0  0  0  0  0  0  0  0
    6.1205    1.4069   -3.2978 H   0  0  0  0  0  0  0  0  0  0  0  0
    4.7917    2.5269   -3.6825 H   0  0  0  0  0  0  0  0  0  0  0  0
    1.4330    4.0772   -0.5018 H   0  0  0  0  0  0  0  0  0  0  0  0
   -4.7163    1.7350    1.1364 H   0  0  0  0  0  0  0  0  0  0  0  0
   -5.0627    3.3769    1.0546 H   0  0  0  0  0  0  0  0  0  0  0  0
    2.5551    0.4168    2.0642 H   0  0  0  0  0  0  0  0  0  0  0  0
  1  2  2  0  0  0  0
  1  4  1  0  0  0  0
  1 31  1  0  0  0  0
  2 10  1  0  0  0  0
  2 32  1  0  0  0  0
  3  5  2  0  0  0  0
  3 15  1  0  0  0  0
  3 33  1  0  0  0  0
  4 16  2  0  0  0  0
  4 34  1  0  0  0  0
  5 19  1  0  0  0  0
  5 35  1  0  0  0  0
  6 11  2  0  0  0  0
  6 13  1  0  0  0  0
  6 36  1  0  0  0  0
  7 12  1  0  0  0  0
  7 13  2  0  0  0  0
  7 37  1  0  0  0  0
  8 10  2  0  0  0  0
  8 16  1  0  0  0  0
  8 38  1  0  0  0  0
  9 14  1  0  0  0  0
  9 18  2  0  0  0  0
  9 39  1  0  0  0  0
 10 11  1  0  0  0  0
 11 17  1  0  0  0  0
 12 17  2  0  0  0  0
 12 18  1  0  0  0  0
 13 21  1  0  0  0  0
 14 15  2  0  0  0  0
 14 22  1  0  0  0  0
 15 23  1  0  0  0  0
 16 25  1  0  0  0  0
 17 30  1  0  0  0  0
 18 23  1  0  0  0  0
 19 22  2  0  0  0  0
 19 24  1  0  0  0  0
 20 21  1  0  0  0  0
 20 26  1  0  0  0  0
 20 27  2  0  0  0  0
 21 40  1  0  0  0  0
 21 41  1  0  0  0  0
 23 42  1  0  0  0  0
 24 43  1  0  0  0  0
 24 44  1  0  0  0  0
 25 28  2  0  0  0  0
 25 29  2  0  0  0  0
 30 45  1  0  0  0  0
M  END
>  <name>
{5-(5-AMINO-1H-PYRROLO[3,2-B]PYRIDIN-2-YL)-6-HYDROXY-3'-NITRO-BIPHENYL-3-YL]-ACETIC ACID

>  <score>
1.226

>  <target>
Coagulation factor VII

$$$$
DB00800
 OpenBabel11241310543D

 38 40  0  0  1  0  0  0  0  0999 V2000
    4.6847   -2.1680    0.4689 C   0  0  0  0  0  0  0  0  0  0  0  0
    5.2471   -1.1916    2.5836 C   0  0  0  0  0  0  0  0  0  0  0  0
    5.5835   -3.1914    0.6993 C   0  0  0  0  0  0  0  0  0  0  0  0
    6.1434   -2.2156    2.8211 C   0  0  0  0  0  0  0  0  0  0  0  0
    5.2881    0.7516   -0.3987 C   0  0  0  0  0  0  0  0  0  0  0  0
    4.5146   -1.1704    1.4111 C   0  0  0  0  0  0  0  0  0  0  0  0
    3.9334    0.6798   -0.0997 C   0  0  0  0  0  0  0  0  0  0  0  0
    3.0180    1.2924   -0.9237 C   0  0  0  0  0  0  0  0  0  0  0  0
    6.3159   -3.2177    1.8772 C   0  0  0  0  0  0  0  0  0  0  0  0
    5.7263    1.4561   -1.5055 C   0  0  0  0  0  0  0  0  0  0  0  0
    4.8016    2.0890   -2.3299 C   0  0  0  0  0  0  0  0  0  0  0  0
    3.4519    2.0058   -2.0341 C   0  0  0  0  0  0  0  0  0  0  0  0
    1.5342    1.2049   -0.6765 C   0  0  0  0  0  0  0  0  0  0  0  0
    1.2088    1.5657    0.7760 C   0  0  0  0  0  0  0  0  0  0  0  0
    2.1290   -0.6423    1.0255 C   0  0  0  0  0  0  0  0  0  0  0  0
    3.5338   -0.0549    1.1570 C   0  0  1  0  0  0  0  0  0  0  0  0
    1.1619    0.3265    1.5529 N   0  0  0  0  0  0  0  0  0  0  0  0
    7.2005   -4.2237    2.1065 O   0  0  0  0  0  0  0  0  0  0  0  0
    7.0544    1.5253   -1.7895 O   0  0  0  0  0  0  0  0  0  0  0  0
    5.2220    2.7950   -3.4140 O   0  0  0  0  0  0  0  0  0  0  0  0
    2.2937    2.7917   -3.0610 Cl  0  0  0  0  0  0  0  0  0  0  0  0
    4.1140   -2.1473   -0.4478 H   0  0  0  0  0  0  0  0  0  0  0  0
    5.1126   -0.4112    3.3180 H   0  0  0  0  0  0  0  0  0  0  0  0
    5.7158   -3.9705   -0.0367 H   0  0  0  0  0  0  0  0  0  0  0  0
    6.7124   -2.2339    3.7389 H   0  0  0  0  0  0  0  0  0  0  0  0
    6.0047    0.2540    0.2380 H   0  0  0  0  0  0  0  0  0  0  0  0
    1.0174    1.8955   -1.3429 H   0  0  0  0  0  0  0  0  0  0  0  0
    1.1952    0.1890   -0.8792 H   0  0  0  0  0  0  0  0  0  0  0  0
    0.2418    2.0665    0.8232 H   0  0  0  0  0  0  0  0  0  0  0  0
    1.9832    2.2210    1.1748 H   0  0  0  0  0  0  0  0  0  0  0  0
    1.9125   -0.8404   -0.0243 H   0  0  0  0  0  0  0  0  0  0  0  0
    2.0656   -1.5692    1.5953 H   0  0  0  0  0  0  0  0  0  0  0  0
    3.5548    0.6375    1.9985 H   0  0  0  0  0  0  0  0  0  0  0  0
    0.2337   -0.0656    1.5005 H   0  0  0  0  0  0  0  0  0  0  0  0
    1.3844    0.5301    2.5158 H   0  0  0  0  0  0  0  0  0  0  0  0
    8.0511   -3.9347    1.7489 H   0  0  0  0  0  0  0  0  0  0  0  0
    7.2573    0.7737   -2.3630 H   0  0  0  0  0  0  0  0  0  0  0  0
    5.2493    2.1764   -4.1568 H   0  0  0  0  0  0  0  0  0  0  0  0
  1  3  2  0  0  0  0
  1  6  1  0  0  0  0
  1 22  1  0  0  0  0
  2  4  1  0  0  0  0
  2  6  2  0  0  0  0
  2 23  1  0  0  0  0
  3  9  1  0  0  0  0
  3 24  1  0  0  0  0
  4  9  2  0  0  0  0
  4 25  1  0  0  0  0
  5  7  2  0  0  0  0
  5 10  1  0  0  0  0
  5 26  1  0  0  0  0
  6 16  1  0  0  0  0
  7  8  1  0  0  0  0
  7 16  1  0  0  0  0
  8 12  2  0  0  0  0
  8 13  1  0  0  0  0
  9 18  1  0  0  0  0
 10 11  2  0  0  0  0
 10 19  1  0  0  0  0
 11 12  1  0  0  0  0
 11 20  1  0  0  0  0
 12 21  1  0  0  0  0
 13 14  1  0  0  0  0
 13 27  1  0  0  0  0
 13 28  1  0  0  0  0
 14 17  1  0  0  0  0
 14 29  1  0  0  0  0
 14 30  1  0  0  0  0
 15 16  1  0  0  0  0
 15 17  1  0  0  0  0
 15 31  1  0  0  0  0
 15 32  1  0  0  0  0
 16 33  1  1  0  0  0
 17 34  1  0  0  0  0
 17 35  1  0  0  0  0
 18 36  1  0  0  0  0
 19 37  1  0  0  0  0
 20 38  1  0  0  0  0
M  END
>  <name>
Fenoldopam

>  <score>
1.226

>  <target>
Alpha-2C adrenergic receptor
D(1B) dopamine receptor
D(1A) dopamine receptor
Alpha-2B adrenergic receptor

$$$$
DB07607
 OpenBabel11241310543D

 43 46  0  0  0  0  0  0  0  0999 V2000
   -1.0884    1.6869    0.1360 C   0  0  0  0  0  0  0  0  0  0  0  0
    0.0974    0.9828    0.1541 C   0  0  0  0  0  0  0  0  0  0  0  0
    4.3777   -2.2825    2.3413 C   0  0  0  0  0  0  0  0  0  0  0  0
    6.2386   -1.8960    0.8531 C   0  0  0  0  0  0  0  0  0  0  0  0
    5.0914   -3.2874    2.9613 C   0  0  0  0  0  0  0  0  0  0  0  0
    6.9438   -2.8988    1.4856 C   0  0  0  0  0  0  0  0  0  0  0  0
   -1.0770    3.0648    0.0082 C   0  0  0  0  0  0  0  0  0  0  0  0
    2.6519    2.4386   -2.6145 C   0  0  0  0  0  0  0  0  0  0  0  0
    4.9904    2.7187   -2.1478 C   0  0  0  0  0  0  0  0  0  0  0  0
    1.3173    3.0555   -0.0722 C   0  0  0  0  0  0  0  0  0  0  0  0
    2.7897    3.3667   -3.6250 C   0  0  0  0  0  0  0  0  0  0  0  0
    5.0397    3.6319   -3.1799 C   0  0  0  0  0  0  0  0  0  0  0  0
    4.9495   -1.5763    1.2819 C   0  0  0  0  0  0  0  0  0  0  0  0
    1.3127    1.6649    0.0561 C   0  0  0  0  0  0  0  0  0  0  0  0
    3.7733    2.0951   -1.8513 C   0  0  0  0  0  0  0  0  0  0  0  0
    6.3711   -3.5955    2.5349 C   0  0  0  0  0  0  0  0  0  0  0  0
    0.1230    3.7468   -0.0956 C   0  0  0  0  0  0  0  0  0  0  0  0
    3.6736    1.1035   -0.7562 C   0  0  0  0  0  0  0  0  0  0  0  0
    2.5860    0.9185    0.0821 C   0  0  0  0  0  0  0  0  0  0  0  0
    4.1904   -0.4982    0.6128 C   0  0  0  0  0  0  0  0  0  0  0  0
    6.7671   -6.2978    2.3213 C   0  0  0  0  0  0  0  0  0  0  0  0
    3.9578    3.9275   -3.8754 N   0  0  0  0  0  0  0  0  0  0  0  0
    4.6214    0.2226   -0.3965 N   0  0  0  0  0  0  0  0  0  0  0  0
    2.9273   -0.0974    0.9424 N   0  0  0  0  0  0  0  0  0  0  0  0
    6.5979   -4.9212    4.5806 O   0  0  0  0  0  0  0  0  0  0  0  0
    7.2757   -4.8802    3.3324 S   0  0  2  0  0  0  0  0  0  0  0  0
    0.1264    5.8329   -0.2881 I   0  0  0  0  0  0  0  0  0  0  0  0
   -2.0283    1.1611    0.2170 H   0  0  0  0  0  0  0  0  0  0  0  0
    0.0868   -0.0925    0.2537 H   0  0  0  0  0  0  0  0  0  0  0  0
    3.3790   -2.0427    2.6752 H   0  0  0  0  0  0  0  0  0  0  0  0
    6.6866   -1.3533    0.0338 H   0  0  0  0  0  0  0  0  0  0  0  0
    4.6504   -3.8344    3.7814 H   0  0  0  0  0  0  0  0  0  0  0  0
    7.9434   -3.1438    1.1582 H   0  0  0  0  0  0  0  0  0  0  0  0
   -2.0088    3.6106   -0.0104 H   0  0  0  0  0  0  0  0  0  0  0  0
    1.6930    1.9833   -2.4154 H   0  0  0  0  0  0  0  0  0  0  0  0
    5.8797    2.4816   -1.5829 H   0  0  0  0  0  0  0  0  0  0  0  0
    2.2530    3.5887   -0.1526 H   0  0  0  0  0  0  0  0  0  0  0  0
    1.9300    3.6381   -4.2198 H   0  0  0  0  0  0  0  0  0  0  0  0
    5.9753    4.1153   -3.4193 H   0  0  0  0  0  0  0  0  0  0  0  0
    7.0588   -6.1282    1.2848 H   0  0  0  0  0  0  0  0  0  0  0  0
    7.2518   -7.2010    2.6920 H   0  0  0  0  0  0  0  0  0  0  0  0
    5.6851   -6.4161    2.3795 H   0  0  0  0  0  0  0  0  0  0  0  0
    2.3743   -0.4619    1.6511 H   0  0  0  0  0  0  0  0  0  0  0  0
  1  2  2  0  0  0  0
  1  7  1  0  0  0  0
  1 28  1  0  0  0  0
  2 14  1  0  0  0  0
  2 29  1  0  0  0  0
  3  5  2  0  0  0  0
  3 13  1  0  0  0  0
  3 30  1  0  0  0  0
  4  6  1  0  0  0  0
  4 13  2  0  0  0  0
  4 31  1  0  0  0  0
  5 16  1  0  0  0  0
  5 32  1  0  0  0  0
  6 16  2  0  0  0  0
  6 33  1  0  0  0  0
  7 17  2  0  0  0  0
  7 34  1  0  0  0  0
  8 11  2  0  0  0  0
  8 15  1  0  0  0  0
  8 35  1  0  0  0  0
  9 12  1  0  0  0  0
  9 15  2  0  0  0  0
  9 36  1  0  0  0  0
 10 14  2  0  0  0  0
 10 17  1  0  0  0  0
 10 37  1  0  0  0  0
 11 22  1  0  0  0  0
 11 38  1  0  0  0  0
 12 22  2  0  0  0  0
 12 39  1  0  0  0  0
 13 20  1  0  0  0  0
 14 19  1  0  0  0  0
 15 18  1  0  0  0  0
 17 27  1  0  0  0  0
 18 19  2  0  0  0  0
 18 23  1  0  0  0  0
 19 24  1  0  0  0  0
 20 23  2  0  0  0  0
 20 24  1  0  0  0  0
 21 26  1  0  0  0  0
 21 40  1  0  0  0  0
 21 41  1  0  0  0  0
 21 42  1  0  0  0  0
 24 43  1  0  0  0  0
 25 26  2  0  0  0  0
 26 16  1  6  0  0  0
M  END
>  <name>
4-[5-(3-IODO-PHENYL)-2-(4-METHANESULFINYL-PHENYL)-1H-IMIDAZOL-4-YL]-PYRIDINE

>  <score>
1.225

>  <target>


$$$$
DB07972
 OpenBabel11241310543D

 30 32  0  0  0  0  0  0  0  0999 V2000
    5.9253   -3.4224    1.2285 C   0  0  0  0  0  0  0  0  0  0  0  0
    5.9796   -3.4262    2.6104 C   0  0  0  0  0  0  0  0  0  0  0  0
    5.6038    0.4008   -1.1315 C   0  0  0  0  0  0  0  0  0  0  0  0
    5.2405   -2.4230    0.5658 C   0  0  0  0  0  0  0  0  0  0  0  0
    5.7757    1.3019   -2.1599 C   0  0  0  0  0  0  0  0  0  0  0  0
    4.6733   -1.4205    2.6752 C   0  0  0  0  0  0  0  0  0  0  0  0
    3.5524    2.1620   -1.8170 C   0  0  0  0  0  0  0  0  0  0  0  0
    2.6589    0.0297    0.8805 C   0  0  0  0  0  0  0  0  0  0  0  0
    5.3546   -2.4265    3.3325 C   0  0  0  0  0  0  0  0  0  0  0  0
    3.3675    1.2517   -0.7736 C   0  0  0  0  0  0  0  0  0  0  0  0
    4.4049    0.3670   -0.4338 C   0  0  0  0  0  0  0  0  0  0  0  0
    4.6165   -1.4142    1.2880 C   0  0  0  0  0  0  0  0  0  0  0  0
    4.7522    2.1828   -2.5035 C   0  0  0  0  0  0  0  0  0  0  0  0
    5.4171   -2.4338    4.8382 C   0  0  0  0  0  0  0  0  0  0  0  0
    2.3329    0.9918    0.0674 N   0  0  0  0  0  0  0  0  0  0  0  0
    3.9263   -0.3953    0.6183 N   0  0  0  0  0  0  0  0  0  0  0  0
    4.9378    3.0896   -3.5527 N   0  0  0  0  0  0  0  0  0  0  0  0
    6.4152   -4.2044    0.6673 H   0  0  0  0  0  0  0  0  0  0  0  0
    6.5117   -4.2116    3.1267 H   0  0  0  0  0  0  0  0  0  0  0  0
    6.4008   -0.2794   -0.8698 H   0  0  0  0  0  0  0  0  0  0  0  0
    5.1983   -2.4205   -0.5134 H   0  0  0  0  0  0  0  0  0  0  0  0
    6.7096    1.3262   -2.7019 H   0  0  0  0  0  0  0  0  0  0  0  0
    4.1855   -0.6397    3.2396 H   0  0  0  0  0  0  0  0  0  0  0  0
    2.7616    2.8466   -2.0860 H   0  0  0  0  0  0  0  0  0  0  0  0
    2.0180   -0.3732    1.6508 H   0  0  0  0  0  0  0  0  0  0  0  0
    4.5719   -2.9967    5.2342 H   0  0  0  0  0  0  0  0  0  0  0  0
    6.3478   -2.9005    5.1609 H   0  0  0  0  0  0  0  0  0  0  0  0
    5.3769   -1.4094    5.2085 H   0  0  0  0  0  0  0  0  0  0  0  0
    5.7772    3.1038   -4.0387 H   0  0  0  0  0  0  0  0  0  0  0  0
    4.2272    3.7040   -3.7941 H   0  0  0  0  0  0  0  0  0  0  0  0
  1  2  2  0  0  0  0
  1  4  1  0  0  0  0
  1 18  1  0  0  0  0
  2  9  1  0  0  0  0
  2 19  1  0  0  0  0
  3  5  2  0  0  0  0
  3 11  1  0  0  0  0
  3 20  1  0  0  0  0
  4 12  2  0  0  0  0
  4 21  1  0  0  0  0
  5 13  1  0  0  0  0
  5 22  1  0  0  0  0
  6  9  2  0  0  0  0
  6 12  1  0  0  0  0
  6 23  1  0  0  0  0
  7 10  1  0  0  0  0
  7 13  2  0  0  0  0
  7 24  1  0  0  0  0
  8 15  2  0  0  0  0
  8 16  1  0  0  0  0
  8 25  1  0  0  0  0
  9 14  1  0  0  0  0
 10 11  2  0  0  0  0
 10 15  1  0  0  0  0
 11 16  1  0  0  0  0
 12 16  1  0  0  0  0
 13 17  1  0  0  0  0
 14 26  1  0  0  0  0
 14 27  1  0  0  0  0
 14 28  1  0  0  0  0
 17 29  1  0  0  0  0
 17 30  1  0  0  0  0
M  END
>  <name>
1-(3-METHYLPHENYL)-1H-BENZIMIDAZOL-5-AMINE

>  <score>
1.223

>  <target>


$$$$
DB02656
 OpenBabel11241310543D

 40 43  0  0  0  0  0  0  0  0999 V2000
    6.5489   -3.3056    2.1300 C   0  0  0  0  0  0  0  0  0  0  0  0
    6.3032   -3.2270    0.7708 C   0  0  0  0  0  0  0  0  0  0  0  0
    5.9332   -2.4255    3.0015 C   0  0  0  0  0  0  0  0  0  0  0  0
    1.7611    0.7756    0.7102 C   0  0  0  0  0  0  0  0  0  0  0  0
    5.4414   -2.2687    0.2771 C   0  0  0  0  0  0  0  0  0  0  0  0
    5.0740   -1.4595    2.5184 C   0  0  0  0  0  0  0  0  0  0  0  0
    2.6327   -0.1848    1.1946 C   0  0  0  0  0  0  0  0  0  0  0  0
    2.1294    1.5845   -0.3443 C   0  0  0  0  0  0  0  0  0  0  0  0
    4.8183   -1.3793    1.1506 C   0  0  0  0  0  0  0  0  0  0  0  0
    3.8911   -0.3474    0.6259 C   0  0  0  0  0  0  0  0  0  0  0  0
    3.3871    1.4349   -0.9267 C   0  0  0  0  0  0  0  0  0  0  0  0
    4.2780    0.4666   -0.4453 C   0  0  0  0  0  0  0  0  0  0  0  0
    5.1036    2.0651   -2.5812 C   0  0  0  0  0  0  0  0  0  0  0  0
    3.8147    2.2838   -2.0582 C   0  0  0  0  0  0  0  0  0  0  0  0
    5.8913    1.0923   -2.0426 C   0  0  0  0  0  0  0  0  0  0  0  0
    7.7575   -0.4475   -2.5842 C   0  0  0  0  0  0  0  0  0  0  0  0
    7.9188    2.0026   -3.1415 C   0  0  0  0  0  0  0  0  0  0  0  0
    9.1974   -0.3171   -2.0758 C   0  0  0  0  0  0  0  0  0  0  0  0
    9.3450    1.9256   -2.5859 C   0  0  0  0  0  0  0  0  0  0  0  0
    7.1418    0.8906   -2.5674 N   0  0  0  0  0  0  0  0  0  0  0  0
    3.0809    3.1437   -2.5188 O   0  0  0  0  0  0  0  0  0  0  0  0
    5.4925    0.3290   -1.0161 O   0  0  0  0  0  0  0  0  0  0  0  0
    9.8991    0.6410   -2.8669 O   0  0  0  0  0  0  0  0  0  0  0  0
    7.2237   -4.0573    2.5119 H   0  0  0  0  0  0  0  0  0  0  0  0
    6.7864   -3.9170    0.0950 H   0  0  0  0  0  0  0  0  0  0  0  0
    6.1286   -2.4915    4.0616 H   0  0  0  0  0  0  0  0  0  0  0  0
    0.7867    0.8922    1.1611 H   0  0  0  0  0  0  0  0  0  0  0  0
    5.2501   -2.2084   -0.7840 H   0  0  0  0  0  0  0  0  0  0  0  0
    4.5938   -0.7728    3.1997 H   0  0  0  0  0  0  0  0  0  0  0  0
    2.3332   -0.8121    2.0211 H   0  0  0  0  0  0  0  0  0  0  0  0
    1.4453    2.3322   -0.7177 H   0  0  0  0  0  0  0  0  0  0  0  0
    5.4630    2.6594   -3.4083 H   0  0  0  0  0  0  0  0  0  0  0  0
    7.1969   -1.1185   -1.9335 H   0  0  0  0  0  0  0  0  0  0  0  0
    7.7605   -0.8382   -3.6017 H   0  0  0  0  0  0  0  0  0  0  0  0
    7.9416    1.9131   -4.2276 H   0  0  0  0  0  0  0  0  0  0  0  0
    7.4649    2.9527   -2.8596 H   0  0  0  0  0  0  0  0  0  0  0  0
    9.1870    0.0086   -1.0356 H   0  0  0  0  0  0  0  0  0  0  0  0
    9.6967   -1.2832   -2.1482 H   0  0  0  0  0  0  0  0  0  0  0  0
    9.3235    2.0839   -1.5077 H   0  0  0  0  0  0  0  0  0  0  0  0
    9.9586    2.6957   -3.0534 H   0  0  0  0  0  0  0  0  0  0  0  0
  1  2  2  0  0  0  0
  1  3  1  0  0  0  0
  1 24  1  0  0  0  0
  2  5  1  0  0  0  0
  2 25  1  0  0  0  0
  3  6  2  0  0  0  0
  3 26  1  0  0  0  0
  4  7  2  0  0  0  0
  4  8  1  0  0  0  0
  4 27  1  0  0  0  0
  5  9  2  0  0  0  0
  5 28  1  0  0  0  0
  6  9  1  0  0  0  0
  6 29  1  0  0  0  0
  7 10  1  0  0  0  0
  7 30  1  0  0  0  0
  8 11  2  0  0  0  0
  8 31  1  0  0  0  0
  9 10  1  0  0  0  0
 10 12  2  0  0  0  0
 11 12  1  0  0  0  0
 11 14  1  0  0  0  0
 12 22  1  0  0  0  0
 13 14  1  0  0  0  0
 13 15  2  0  0  0  0
 13 32  1  0  0  0  0
 14 21  2  0  0  0  0
 15 20  1  0  0  0  0
 15 22  1  0  0  0  0
 16 18  1  0  0  0  0
 16 20  1  0  0  0  0
 16 33  1  0  0  0  0
 16 34  1  0  0  0  0
 17 19  1  0  0  0  0
 17 20  1  0  0  0  0
 17 35  1  0  0  0  0
 17 36  1  0  0  0  0
 18 23  1  0  0  0  0
 18 37  1  0  0  0  0
 18 38  1  0  0  0  0
 19 23  1  0  0  0  0
 19 39  1  0  0  0  0
 19 40  1  0  0  0  0
M  END
>  <name>
2-(4-Morpholinyl)-8-Phenyl-4h-1-Benzopyran-4-One

>  <score>
1.215

>  <target>
Proto-oncogene serine/threonine-protein kinase Pim-1

$$$$
DB00714
 OpenBabel11241310543D

 38 41  0  0  1  0  0  0  0  0999 V2000
   -0.3726    3.6167   -0.1120 C   0  0  0  0  0  0  0  0  0  0  0  0
    0.8754    3.3031   -0.6514 C   0  0  0  0  0  0  0  0  0  0  0  0
   -1.0933    2.6554    0.5874 C   0  0  0  0  0  0  0  0  0  0  0  0
    4.7179    0.1831   -0.9465 C   0  0  0  0  0  0  0  0  0  0  0  0
    5.3533    0.9406   -1.9254 C   0  0  0  0  0  0  0  0  0  0  0  0
    1.4272    2.0177   -0.5127 C   0  0  0  0  0  0  0  0  0  0  0  0
    2.7683    1.6611   -1.0337 C   0  0  0  0  0  0  0  0  0  0  0  0
    3.4283    0.5250   -0.5116 C   0  0  0  0  0  0  0  0  0  0  0  0
   -0.5810    1.3631    0.7427 C   0  0  0  0  0  0  0  0  0  0  0  0
    0.6776    1.0456    0.1974 C   0  0  0  0  0  0  0  0  0  0  0  0
    4.7075    2.0444   -2.4706 C   0  0  0  0  0  0  0  0  0  0  0  0
    3.4299    2.4013   -2.0296 C   0  0  0  0  0  0  0  0  0  0  0  0
    2.7526   -0.3084    0.5564 C   0  0  0  0  0  0  0  0  0  0  0  0
   -1.3483    0.3658    1.5680 C   0  0  0  0  0  0  0  0  0  0  0  0
   -0.9420   -1.0754    1.3070 C   0  0  0  0  0  0  0  0  0  0  0  0
    1.2348   -0.3659    0.3180 C   0  0  1  0  0  0  0  0  0  0  0  0
    0.9743   -2.6442    1.4258 C   0  0  0  0  0  0  0  0  0  0  0  0
    0.5627   -1.1933    1.4146 N   0  0  0  0  0  0  0  0  0  0  0  0
    5.3348    2.7622   -3.4456 O   0  0  0  0  0  0  0  0  0  0  0  0
    2.8438    3.4434   -2.6917 O   0  0  0  0  0  0  0  0  0  0  0  0
   -0.7706    4.6222   -0.2157 H   0  0  0  0  0  0  0  0  0  0  0  0
    1.4072    4.1235   -1.1192 H   0  0  0  0  0  0  0  0  0  0  0  0
   -2.0538    2.9223    1.0214 H   0  0  0  0  0  0  0  0  0  0  0  0
    5.2297   -0.6795   -0.5277 H   0  0  0  0  0  0  0  0  0  0  0  0
    6.3475    0.6606   -2.2622 H   0  0  0  0  0  0  0  0  0  0  0  0
    3.1787   -1.3167    0.5321 H   0  0  0  0  0  0  0  0  0  0  0  0
    2.9825    0.1298    1.5363 H   0  0  0  0  0  0  0  0  0  0  0  0
   -1.1885    0.6058    2.6270 H   0  0  0  0  0  0  0  0  0  0  0  0
   -2.4217    0.4651    1.3675 H   0  0  0  0  0  0  0  0  0  0  0  0
   -1.3893   -1.7366    2.0568 H   0  0  0  0  0  0  0  0  0  0  0  0
   -1.2288   -1.4142    0.3046 H   0  0  0  0  0  0  0  0  0  0  0  0
    1.0187   -0.8874   -0.6254 H   0  0  0  0  0  0  0  0  0  0  0  0
    0.6886   -3.0798    0.4666 H   0  0  0  0  0  0  0  0  0  0  0  0
    2.0560   -2.6836    1.5683 H   0  0  0  0  0  0  0  0  0  0  0  0
    0.4519   -3.1333    2.2501 H   0  0  0  0  0  0  0  0  0  0  0  0
    0.8385   -0.7977    2.3242 H   0  0  0  0  0  0  0  0  0  0  0  0
    6.2039    2.3771   -3.6368 H   0  0  0  0  0  0  0  0  0  0  0  0
    3.4642    3.8175   -3.3346 H   0  0  0  0  0  0  0  0  0  0  0  0
  1  2  2  0  0  0  0
  1  3  1  0  0  0  0
  1 21  1  0  0  0  0
  2  6  1  0  0  0  0
  2 22  1  0  0  0  0
  3  9  2  0  0  0  0
  3 23  1  0  0  0  0
  4  5  2  0  0  0  0
  4  8  1  0  0  0  0
  4 24  1  0  0  0  0
  5 11  1  0  0  0  0
  5 25  1  0  0  0  0
  6  7  1  0  0  0  0
  6 10  2  0  0  0  0
  7  8  2  0  0  0  0
  7 12  1  0  0  0  0
  8 13  1  0  0  0  0
  9 10  1  0  0  0  0
  9 14  1  0  0  0  0
 10 16  1  0  0  0  0
 11 12  2  0  0  0  0
 11 19  1  0  0  0  0
 12 20  1  0  0  0  0
 13 16  1  0  0  0  0
 13 26  1  0  0  0  0
 13 27  1  0  0  0  0
 14 15  1  0  0  0  0
 14 28  1  0  0  0  0
 14 29  1  0  0  0  0
 15 18  1  0  0  0  0
 15 30  1  0  0  0  0
 15 31  1  0  0  0  0
 16 18  1  0  0  0  0
 16 32  1  6  0  0  0
 17 18  1  0  0  0  0
 17 33  1  0  0  0  0
 17 34  1  0  0  0  0
 17 35  1  0  0  0  0
 18 36  1  0  0  0  0
 19 37  1  0  0  0  0
 20 38  1  0  0  0  0
M  END
>  <name>
Apomorphine

>  <score>
1.214

>  <target>
5-hydroxytryptamine 1A receptor
5-hydroxytryptamine 2B receptor
Alpha-2A adrenergic receptor
D(1A) dopamine receptor
5-hydroxytryptamine 1D receptor
5-hydroxytryptamine 1B receptor
D1 dopamine receptor-interacting protein calcyon
D(3) dopamine receptor
D(4) dopamine receptor
D(2) dopamine receptor
Alpha-2C adrenergic receptor
Alpha-2B adrenergic receptor
5-hydroxytryptamine 2C receptor
D(1B) dopamine receptor

$$$$
DB00861
 OpenBabel11241310543D

 25 26  0  0  0  0  0  0  0  0999 V2000
    3.3056    1.5957   -1.0136 C   0  0  0  0  0  0  0  0  0  0  0  0
   -0.1590    1.1921   -0.0539 C   0  0  0  0  0  0  0  0  0  0  0  0
    4.5218    0.9488   -1.0527 C   0  0  0  0  0  0  0  0  0  0  0  0
   -1.3703    1.8515   -0.0182 C   0  0  0  0  0  0  0  0  0  0  0  0
    2.5859    0.1725    0.7974 C   0  0  0  0  0  0  0  0  0  0  0  0
   -0.2305    3.9652    0.0390 C   0  0  0  0  0  0  0  0  0  0  0  0
    2.3340    1.2145   -0.0853 C   0  0  0  0  0  0  0  0  0  0  0  0
    1.0292    1.9197   -0.0464 C   0  0  0  0  0  0  0  0  0  0  0  0
    3.8156   -0.4889    0.7568 C   0  0  0  0  0  0  0  0  0  0  0  0
    4.7870   -0.0944   -0.1764 C   0  0  0  0  0  0  0  0  0  0  0  0
   -1.4078    3.2362    0.0254 C   0  0  0  0  0  0  0  0  0  0  0  0
    0.9880    3.3138   -0.0025 C   0  0  0  0  0  0  0  0  0  0  0  0
    4.0917   -1.5942    1.6889 C   0  0  0  0  0  0  0  0  0  0  0  0
    5.1697   -2.1715    1.6510 O   0  0  0  0  0  0  0  0  0  0  0  0
    3.2432   -1.9355    2.5014 O   0  0  0  0  0  0  0  0  0  0  0  0
    5.9832   -0.7313   -0.2214 O   0  0  0  0  0  0  0  0  0  0  0  0
   -2.5968    3.8768    0.0604 F   0  0  0  0  0  0  0  0  0  0  0  0
    2.1366    4.0252    0.0050 F   0  0  0  0  0  0  0  0  0  0  0  0
    3.1059    2.4066   -1.6985 H   0  0  0  0  0  0  0  0  0  0  0  0
   -0.1319    0.1129   -0.0882 H   0  0  0  0  0  0  0  0  0  0  0  0
    5.2697    1.2519   -1.7705 H   0  0  0  0  0  0  0  0  0  0  0  0
   -2.2913    1.2876   -0.0244 H   0  0  0  0  0  0  0  0  0  0  0  0
    1.8337   -0.1253    1.5129 H   0  0  0  0  0  0  0  0  0  0  0  0
   -0.2644    5.0441    0.0733 H   0  0  0  0  0  0  0  0  0  0  0  0
    5.8858   -1.4653   -0.8434 H   0  0  0  0  0  0  0  0  0  0  0  0
  1  3  2  0  0  0  0
  1  7  1  0  0  0  0
  1 19  1  0  0  0  0
  2  4  2  0  0  0  0
  2  8  1  0  0  0  0
  2 20  1  0  0  0  0
  3 10  1  0  0  0  0
  3 21  1  0  0  0  0
  4 11  1  0  0  0  0
  4 22  1  0  0  0  0
  5  7  2  0  0  0  0
  5  9  1  0  0  0  0
  5 23  1  0  0  0  0
  6 11  2  0  0  0  0
  6 12  1  0  0  0  0
  6 24  1  0  0  0  0
  7  8  1  0  0  0  0
  8 12  2  0  0  0  0
  9 10  2  0  0  0  0
  9 13  1  0  0  0  0
 10 16  1  0  0  0  0
 11 17  1  0  0  0  0
 12 18  1  0  0  0  0
 13 14  1  0  0  0  0
 13 15  2  0  0  0  0
 16 25  1  0  0  0  0
M  END
>  <name>
Diflunisal

>  <score>
1.213

>  <target>
Prostaglandin G/H synthase 2

$$$$
DB04306
 OpenBabel11241310543D

 34 36  0  0  0  0  0  0  0  0999 V2000
    2.2789    0.6832    0.4508 C   0  0  0  0  0  0  0  0  0  0  0  0
    5.0078   -3.7383    1.5557 C   0  0  0  0  0  0  0  0  0  0  0  0
    5.8512   -2.2275    3.2151 C   0  0  0  0  0  0  0  0  0  0  0  0
    1.9958    1.6378   -0.4830 C   0  0  0  0  0  0  0  0  0  0  0  0
    3.5244    0.0716    0.4974 C   0  0  0  0  0  0  0  0  0  0  0  0
    5.2450   -2.7976    0.5731 C   0  0  0  0  0  0  0  0  0  0  0  0
    6.0964   -1.2841    2.2369 C   0  0  0  0  0  0  0  0  0  0  0  0
    4.2479    1.4049   -1.3716 C   0  0  0  0  0  0  0  0  0  0  0  0
    5.3105   -3.4542    2.8749 C   0  0  0  0  0  0  0  0  0  0  0  0
    2.9741    2.0217   -1.4087 C   0  0  0  0  0  0  0  0  0  0  0  0
    5.7885   -1.5641    0.9111 C   0  0  0  0  0  0  0  0  0  0  0  0
    4.5154    0.4202   -0.4038 C   0  0  0  0  0  0  0  0  0  0  0  0
    5.2165    1.8055   -2.3204 C   0  0  0  0  0  0  0  0  0  0  0  0
    3.6779    3.2954   -3.2023 C   0  0  0  0  0  0  0  0  0  0  0  0
    5.0502   -4.4835    3.9444 C   0  0  0  0  0  0  0  0  0  0  0  0
    2.7376    2.9589   -2.3400 N   0  0  0  0  0  0  0  0  0  0  0  0
    4.8866    2.7404   -3.2009 N   0  0  0  0  0  0  0  0  0  0  0  0
    6.4734    1.2383   -2.3296 N   0  0  0  0  0  0  0  0  0  0  0  0
    3.3951    4.2655   -4.1466 N   0  0  0  0  0  0  0  0  0  0  0  0
    6.0935   -0.3609   -0.3394 S   0  0  0  0  0  0  0  0  0  0  0  0
    1.5196    0.3958    1.1630 H   0  0  0  0  0  0  0  0  0  0  0  0
    4.5849   -4.6970    1.2937 H   0  0  0  0  0  0  0  0  0  0  0  0
    6.0862   -2.0089    4.2462 H   0  0  0  0  0  0  0  0  0  0  0  0
    1.0209    2.1019   -0.5030 H   0  0  0  0  0  0  0  0  0  0  0  0
    3.7218   -0.6836    1.2437 H   0  0  0  0  0  0  0  0  0  0  0  0
    5.0080   -3.0200   -0.4568 H   0  0  0  0  0  0  0  0  0  0  0  0
    6.5187   -0.3264    2.5033 H   0  0  0  0  0  0  0  0  0  0  0  0
    5.9328   -5.1113    4.0670 H   0  0  0  0  0  0  0  0  0  0  0  0
    4.8280   -3.9811    4.8858 H   0  0  0  0  0  0  0  0  0  0  0  0
    4.2015   -5.1026    3.6539 H   0  0  0  0  0  0  0  0  0  0  0  0
    6.8788    0.9713   -3.1693 H   0  0  0  0  0  0  0  0  0  0  0  0
    6.9521    1.1064   -1.4962 H   0  0  0  0  0  0  0  0  0  0  0  0
    4.0719    4.5279   -4.7900 H   0  0  0  0  0  0  0  0  0  0  0  0
    2.5199    4.6833   -4.1655 H   0  0  0  0  0  0  0  0  0  0  0  0
  1  4  2  0  0  0  0
  1  5  1  0  0  0  0
  1 21  1  0  0  0  0
  2  6  2  0  0  0  0
  2  9  1  0  0  0  0
  2 22  1  0  0  0  0
  3  7  1  0  0  0  0
  3  9  2  0  0  0  0
  3 23  1  0  0  0  0
  4 10  1  0  0  0  0
  4 24  1  0  0  0  0
  5 12  2  0  0  0  0
  5 25  1  0  0  0  0
  6 11  1  0  0  0  0
  6 26  1  0  0  0  0
  7 11  2  0  0  0  0
  7 27  1  0  0  0  0
  8 10  2  0  0  0  0
  8 12  1  0  0  0  0
  8 13  1  0  0  0  0
  9 15  1  0  0  0  0
 10 16  1  0  0  0  0
 11 20  1  0  0  0  0
 12 20  1  0  0  0  0
 13 17  2  0  0  0  0
 13 18  1  0  0  0  0
 14 16  2  0  0  0  0
 14 17  1  0  0  0  0
 14 19  1  0  0  0  0
 15 28  1  0  0  0  0
 15 29  1  0  0  0  0
 15 30  1  0  0  0  0
 18 31  1  0  0  0  0
 18 32  1  0  0  0  0
 19 33  1  0  0  0  0
 19 34  1  0  0  0  0
M  END
>  <name>
5-[(4-Methylphenyl)Sulfanyl]-2,4-Quinazolinediamine

>  <score>
1.213

>  <target>
Dihydrofolate reductase

$$$$
DB07834
 OpenBabel11241310543D

 47 50  0  0  0  0  0  0  0  0999 V2000
    0.1326    0.8726    0.1356 C   0  0  0  0  0  0  0  0  0  0  0  0
    1.0481    3.1092    0.1480 C   0  0  0  0  0  0  0  0  0  0  0  0
    5.1312    0.1503   -0.6166 C   0  0  0  0  0  0  0  0  0  0  0  0
   -1.1278    1.3860    0.3427 C   0  0  0  0  0  0  0  0  0  0  0  0
   -0.2124    3.6253    0.3484 C   0  0  0  0  0  0  0  0  0  0  0  0
    4.6590    1.1798   -1.4064 C   0  0  0  0  0  0  0  0  0  0  0  0
    3.0567    0.1426    0.6178 C   0  0  0  0  0  0  0  0  0  0  0  0
    1.2283    1.7305    0.0369 C   0  0  0  0  0  0  0  0  0  0  0  0
    4.3314   -0.3766    0.3991 C   0  0  0  0  0  0  0  0  0  0  0  0
    2.5856    1.1761   -0.1858 C   0  0  0  0  0  0  0  0  0  0  0  0
   -1.3095    2.7668    0.4536 C   0  0  0  0  0  0  0  0  0  0  0  0
    3.3945    1.6941   -1.1976 C   0  0  0  0  0  0  0  0  0  0  0  0
    4.8377   -1.4791    1.2445 C   0  0  0  0  0  0  0  0  0  0  0  0
    6.0830   -3.0118    2.1072 C   0  0  0  0  0  0  0  0  0  0  0  0
   -2.6615    3.3189    0.6759 C   0  0  0  0  0  0  0  0  0  0  0  0
   -6.8235    1.6941    2.3766 C   0  0  0  0  0  0  0  0  0  0  0  0
   -7.5552    2.2662    1.1608 C   0  0  0  0  0  0  0  0  0  0  0  0
   -6.0749    1.8939    1.0574 C   0  0  0  0  0  0  0  0  0  0  0  0
    2.8870    2.8170   -2.0650 C   0  0  0  0  0  0  0  0  0  0  0  0
    7.2346   -3.9390    2.3990 C   0  0  0  0  0  0  0  0  0  0  0  0
   -5.0620    3.0385    0.9862 C   0  0  0  0  0  0  0  0  0  0  0  0
    4.1931   -2.0677    2.2244 N   0  0  0  0  0  0  0  0  0  0  0  0
    4.9409   -2.9814    2.7355 N   0  0  0  0  0  0  0  0  0  0  0  0
   -3.7203    2.4905    0.7718 N   0  0  0  0  0  0  0  0  0  0  0  0
   -2.8198    4.5208    0.7674 O   0  0  0  0  0  0  0  0  0  0  0  0
    6.0452   -2.0705    1.1485 O   0  0  0  0  0  0  0  0  0  0  0  0
    0.2734   -0.1948    0.0497 H   0  0  0  0  0  0  0  0  0  0  0  0
    1.8970    3.7725    0.0718 H   0  0  0  0  0  0  0  0  0  0  0  0
    6.1206   -0.2482   -0.7853 H   0  0  0  0  0  0  0  0  0  0  0  0
   -1.9758    0.7217    0.4197 H   0  0  0  0  0  0  0  0  0  0  0  0
   -0.3517    4.6929    0.4344 H   0  0  0  0  0  0  0  0  0  0  0  0
    5.2810    1.5844   -2.1912 H   0  0  0  0  0  0  0  0  0  0  0  0
    2.4341   -0.2610    1.4026 H   0  0  0  0  0  0  0  0  0  0  0  0
   -7.0599    0.6717    2.6713 H   0  0  0  0  0  0  0  0  0  0  0  0
   -6.5944    2.3780    3.1939 H   0  0  0  0  0  0  0  0  0  0  0  0
   -7.8076    3.3264    1.1783 H   0  0  0  0  0  0  0  0  0  0  0  0
   -8.2731    1.6201    0.6557 H   0  0  0  0  0  0  0  0  0  0  0  0
   -5.8188    1.0032    0.4837 H   0  0  0  0  0  0  0  0  0  0  0  0
    3.1521    3.7730   -1.6137 H   0  0  0  0  0  0  0  0  0  0  0  0
    3.3387    2.7445   -3.0544 H   0  0  0  0  0  0  0  0  0  0  0  0
    1.8031    2.7455   -2.1545 H   0  0  0  0  0  0  0  0  0  0  0  0
    7.1292   -4.8471    1.8055 H   0  0  0  0  0  0  0  0  0  0  0  0
    8.1722   -3.4450    2.1441 H   0  0  0  0  0  0  0  0  0  0  0  0
    7.2352   -4.1953    3.4585 H   0  0  0  0  0  0  0  0  0  0  0  0
   -5.0805    3.5987    1.9210 H   0  0  0  0  0  0  0  0  0  0  0  0
   -5.3201    3.7012    0.1602 H   0  0  0  0  0  0  0  0  0  0  0  0
   -3.5940    1.5316    0.6988 H   0  0  0  0  0  0  0  0  0  0  0  0
  1  4  2  0  0  0  0
  1  8  1  0  0  0  0
  1 27  1  0  0  0  0
  2  5  1  0  0  0  0
  2  8  2  0  0  0  0
  2 28  1  0  0  0  0
  3  6  2  0  0  0  0
  3  9  1  0  0  0  0
  3 29  1  0  0  0  0
  4 11  1  0  0  0  0
  4 30  1  0  0  0  0
  5 11  2  0  0  0  0
  5 31  1  0  0  0  0
  6 12  1  0  0  0  0
  6 32  1  0  0  0  0
  7  9  2  0  0  0  0
  7 10  1  0  0  0  0
  7 33  1  0  0  0  0
  8 10  1  0  0  0  0
  9 13  1  0  0  0  0
 10 12  2  0  0  0  0
 11 15  1  0  0  0  0
 12 19  1  0  0  0  0
 13 22  2  0  0  0  0
 13 26  1  0  0  0  0
 14 20  1  0  0  0  0
 14 23  2  0  0  0  0
 14 26  1  0  0  0  0
 15 24  1  0  0  0  0
 15 25  2  0  0  0  0
 16 17  1  0  0  0  0
 16 18  1  0  0  0  0
 16 34  1  0  0  0  0
 16 35  1  0  0  0  0
 17 18  1  0  0  0  0
 17 36  1  0  0  0  0
 17 37  1  0  0  0  0
 18 21  1  0  0  0  0
 18 38  1  0  0  0  0
 19 39  1  0  0  0  0
 19 40  1  0  0  0  0
 19 41  1  0  0  0  0
 20 42  1  0  0  0  0
 20 43  1  0  0  0  0
 20 44  1  0  0  0  0
 21 24  1  0  0  0  0
 21 45  1  0  0  0  0
 21 46  1  0  0  0  0
 22 23  1  0  0  0  0
 24 47  1  0  0  0  0
M  END
>  <name>
N-(cyclopropylmethyl)-2'-methyl-5'-(5-methyl-1,3,4-oxadiazol-2-yl)biphenyl-4-carboxamide

>  <score>
1.205

>  <target>


$$$$
DB08615
 OpenBabel11241310543D

 36 38  0  0  0  0  0  0  0  0999 V2000
    5.7409   -2.5668    0.4478 C   0  0  0  0  0  0  0  0  0  0  0  0
    4.9897   -1.3118    2.3725 C   0  0  0  0  0  0  0  0  0  0  0  0
    2.1512    2.1111   -0.8832 C   0  0  0  0  0  0  0  0  0  0  0  0
    6.1435   -3.5907    1.2766 C   0  0  0  0  0  0  0  0  0  0  0  0
    5.3943   -2.3390    3.1961 C   0  0  0  0  0  0  0  0  0  0  0  0
    2.0429    3.0823   -1.8284 C   0  0  0  0  0  0  0  0  0  0  0  0
    4.2451    2.6058   -2.6482 C   0  0  0  0  0  0  0  0  0  0  0  0
    5.1603   -1.4184    0.9904 C   0  0  0  0  0  0  0  0  0  0  0  0
    3.3267    1.3308   -0.7741 C   0  0  0  0  0  0  0  0  0  0  0  0
    5.9723   -3.4816    2.6527 C   0  0  0  0  0  0  0  0  0  0  0  0
    3.0758    3.3489   -2.7226 C   0  0  0  0  0  0  0  0  0  0  0  0
    4.3600    1.6238   -1.6958 C   0  0  0  0  0  0  0  0  0  0  0  0
    4.7277   -0.3182    0.1042 C   0  0  0  0  0  0  0  0  0  0  0  0
    2.5654   -0.0201    1.0858 C   0  0  0  0  0  0  0  0  0  0  0  0
    6.3048   -4.3623    4.9429 C   0  0  0  0  0  0  0  0  0  0  0  0
    6.8702   -5.7746    2.9121 C   0  0  0  0  0  0  0  0  0  0  0  0
    3.5888    0.3392    0.1011 N   0  0  0  0  0  0  0  0  0  0  0  0
    6.3755   -4.5218    3.4884 N   0  0  0  0  0  0  0  0  0  0  0  0
    2.9408    4.3265   -3.6576 O   0  0  0  0  0  0  0  0  0  0  0  0
    5.6223    0.4632   -1.2313 S   0  0  0  0  0  0  0  0  0  0  0  0
    5.8744   -2.6518   -0.6205 H   0  0  0  0  0  0  0  0  0  0  0  0
    4.5409   -0.4249    2.7950 H   0  0  0  0  0  0  0  0  0  0  0  0
    1.3288    1.9325   -0.2064 H   0  0  0  0  0  0  0  0  0  0  0  0
    6.5930   -4.4788    0.8576 H   0  0  0  0  0  0  0  0  0  0  0  0
    5.2626   -2.2572    4.2649 H   0  0  0  0  0  0  0  0  0  0  0  0
    1.1332    3.6615   -1.8866 H   0  0  0  0  0  0  0  0  0  0  0  0
    5.0576    2.7983   -3.3332 H   0  0  0  0  0  0  0  0  0  0  0  0
    2.6591    0.6254    1.9591 H   0  0  0  0  0  0  0  0  0  0  0  0
    1.5767    0.1065    0.6449 H   0  0  0  0  0  0  0  0  0  0  0  0
    2.6990   -1.0593    1.3861 H   0  0  0  0  0  0  0  0  0  0  0  0
    5.9935   -3.3455    5.1822 H   0  0  0  0  0  0  0  0  0  0  0  0
    5.5822   -5.0690    5.3512 H   0  0  0  0  0  0  0  0  0  0  0  0
    7.2857   -4.5539    5.3777 H   0  0  0  0  0  0  0  0  0  0  0  0
    6.9348   -5.6755    1.8285 H   0  0  0  0  0  0  0  0  0  0  0  0
    7.8582   -5.9953    3.3163 H   0  0  0  0  0  0  0  0  0  0  0  0
    6.1857   -6.5851    3.1627 H   0  0  0  0  0  0  0  0  0  0  0  0
  1  4  2  0  0  0  0
  1  8  1  0  0  0  0
  1 21  1  0  0  0  0
  2  5  1  0  0  0  0
  2  8  2  0  0  0  0
  2 22  1  0  0  0  0
  3  6  2  0  0  0  0
  3  9  1  0  0  0  0
  3 23  1  0  0  0  0
  4 10  1  0  0  0  0
  4 24  1  0  0  0  0
  5 10  2  0  0  0  0
  5 25  1  0  0  0  0
  6 11  1  0  0  0  0
  6 26  1  0  0  0  0
  7 11  2  0  0  0  0
  7 12  1  0  0  0  0
  7 27  1  0  0  0  0
  8 13  1  0  0  0  0
  9 12  2  0  0  0  0
  9 17  1  0  0  0  0
 10 18  1  0  0  0  0
 11 19  1  0  0  0  0
 12 20  1  0  0  0  0
 13 17  2  0  0  0  0
 13 20  1  0  0  0  0
 14 17  1  0  0  0  0
 14 28  1  0  0  0  0
 14 29  1  0  0  0  0
 14 30  1  0  0  0  0
 15 18  1  0  0  0  0
 15 31  1  0  0  0  0
 15 32  1  0  0  0  0
 15 33  1  0  0  0  0
 16 18  1  0  0  0  0
 16 34  1  0  0  0  0
 16 35  1  0  0  0  0
 16 36  1  0  0  0  0
M  END
>  <name>
2-[4-(DIMETHYLAMINO)PHENYL]-6-HYDROXY-3-METHYL-1,3-BENZOTHIAZOL-3-IUM

>  <score>
1.204

>  <target>


$$$$
DB07300
 OpenBabel11241310543D

 46 49  0  0  0  0  0  0  0  0999 V2000
    0.7074    1.3926    0.6993 C   0  0  0  0  0  0  0  0  0  0  0  0
    3.4039    0.2067    0.3385 C   0  0  0  0  0  0  0  0  0  0  0  0
   -0.0493    3.4695   -1.0161 C   0  0  0  0  0  0  0  0  0  0  0  0
    6.4968   -2.8214    1.7515 C   0  0  0  0  0  0  0  0  0  0  0  0
    3.2603    2.8159   -2.2808 C   0  0  0  0  0  0  0  0  0  0  0  0
    6.4447   -1.8408    0.8307 C   0  0  0  0  0  0  0  0  0  0  0  0
    4.5000   -2.0035    1.8373 C   0  0  0  0  0  0  0  0  0  0  0  0
    1.5920    1.8366   -0.2833 C   0  0  0  0  0  0  0  0  0  0  0  0
    2.9197    1.2455   -0.4535 C   0  0  0  0  0  0  0  0  0  0  0  0
    3.7472    1.7668   -1.4804 C   0  0  0  0  0  0  0  0  0  0  0  0
    1.2188    2.8886   -1.1536 C   0  0  0  0  0  0  0  0  0  0  0  0
   -0.5333    1.9820    0.8208 C   0  0  0  0  0  0  0  0  0  0  0  0
   -0.9082    3.0226   -0.0367 C   0  0  0  0  0  0  0  0  0  0  0  0
    4.6774   -0.2773    0.0912 C   0  0  0  0  0  0  0  0  0  0  0  0
    5.0283    1.2110   -1.6591 C   0  0  0  0  0  0  0  0  0  0  0  0
   -0.7380    0.4958    2.4830 C   0  0  0  0  0  0  0  0  0  0  0  0
   -4.9817    6.6019    0.4567 C   0  0  0  0  0  0  0  0  0  0  0  0
   -2.2282    4.6062   -0.9095 C   0  0  0  0  0  0  0  0  0  0  0  0
   -3.5924    5.2925   -0.8160 C   0  0  0  0  0  0  0  0  0  0  0  0
    5.2976   -2.9014    2.3474 N   0  0  0  0  0  0  0  0  0  0  0  0
    2.0697    3.3192   -2.1012 N   0  0  0  0  0  0  0  0  0  0  0  0
    5.4350    0.2267   -0.8760 N   0  0  0  0  0  0  0  0  0  0  0  0
    5.1768   -1.3191    0.8774 N   0  0  0  0  0  0  0  0  0  0  0  0
    5.8617    1.6963   -2.6510 N   0  0  0  0  0  0  0  0  0  0  0  0
   -1.3964    1.5504    1.7786 O   0  0  0  0  0  0  0  0  0  0  0  0
   -2.1344    3.5939    0.0947 O   0  0  0  0  0  0  0  0  0  0  0  0
   -3.6927    5.9853    0.4297 O   0  0  0  0  0  0  0  0  0  0  0  0
    0.9933    0.5901    1.3631 H   0  0  0  0  0  0  0  0  0  0  0  0
    2.7986   -0.2121    1.1289 H   0  0  0  0  0  0  0  0  0  0  0  0
   -0.3497    4.2729   -1.6724 H   0  0  0  0  0  0  0  0  0  0  0  0
    7.3557   -3.4378    1.9721 H   0  0  0  0  0  0  0  0  0  0  0  0
    3.8874    3.2149   -3.0643 H   0  0  0  0  0  0  0  0  0  0  0  0
    7.2469   -1.5256    0.1799 H   0  0  0  0  0  0  0  0  0  0  0  0
    3.4722   -1.8372    2.1242 H   0  0  0  0  0  0  0  0  0  0  0  0
    0.1794    0.8763    2.9321 H   0  0  0  0  0  0  0  0  0  0  0  0
   -1.3951    0.1159    3.2654 H   0  0  0  0  0  0  0  0  0  0  0  0
   -0.4962   -0.3091    1.7890 H   0  0  0  0  0  0  0  0  0  0  0  0
   -5.1049    7.1453    1.3935 H   0  0  0  0  0  0  0  0  0  0  0  0
   -5.0705    7.2951   -0.3798 H   0  0  0  0  0  0  0  0  0  0  0  0
   -5.7527    5.8356    0.3770 H   0  0  0  0  0  0  0  0  0  0  0  0
   -2.1163    4.1526   -1.8943 H   0  0  0  0  0  0  0  0  0  0  0  0
   -1.4396    5.3431   -0.7573 H   0  0  0  0  0  0  0  0  0  0  0  0
   -4.3812    4.5429   -0.8795 H   0  0  0  0  0  0  0  0  0  0  0  0
   -3.6990    6.0024   -1.6363 H   0  0  0  0  0  0  0  0  0  0  0  0
    6.7451    1.3143   -2.7722 H   0  0  0  0  0  0  0  0  0  0  0  0
    5.5627    2.4185   -3.2253 H   0  0  0  0  0  0  0  0  0  0  0  0
  1  8  2  0  0  0  0
  1 12  1  0  0  0  0
  1 28  1  0  0  0  0
  2  9  2  0  0  0  0
  2 14  1  0  0  0  0
  2 29  1  0  0  0  0
  3 11  2  0  0  0  0
  3 13  1  0  0  0  0
  3 30  1  0  0  0  0
  4  6  2  0  0  0  0
  4 20  1  0  0  0  0
  4 31  1  0  0  0  0
  5 10  1  0  0  0  0
  5 21  2  0  0  0  0
  5 32  1  0  0  0  0
  6 23  1  0  0  0  0
  6 33  1  0  0  0  0
  7 20  2  0  0  0  0
  7 23  1  0  0  0  0
  7 34  1  0  0  0  0
  8  9  1  0  0  0  0
  8 11  1  0  0  0  0
  9 10  1  0  0  0  0
 10 15  2  0  0  0  0
 11 21  1  0  0  0  0
 12 13  2  0  0  0  0
 12 25  1  0  0  0  0
 13 26  1  0  0  0  0
 14 22  2  0  0  0  0
 14 23  1  0  0  0  0
 15 22  1  0  0  0  0
 15 24  1  0  0  0  0
 16 25  1  0  0  0  0
 16 35  1  0  0  0  0
 16 36  1  0  0  0  0
 16 37  1  0  0  0  0
 17 27  1  0  0  0  0
 17 38  1  0  0  0  0
 17 39  1  0  0  0  0
 17 40  1  0  0  0  0
 18 19  1  0  0  0  0
 18 26  1  0  0  0  0
 18 41  1  0  0  0  0
 18 42  1  0  0  0  0
 19 27  1  0  0  0  0
 19 43  1  0  0  0  0
 19 44  1  0  0  0  0
 24 45  1  0  0  0  0
 24 46  1  0  0  0  0
M  END
>  <name>
2-(1H-imidazol-1-yl)-9-methoxy-8-(2-methoxyethoxy)benzo[c][2,7]naphthyridin-4-amine

>  <score>
1.203

>  <target>


$$$$
DB08683
 OpenBabel11241310543D

 45 52  0  0  1  0  0  0  0  0999 V2000
   -0.7980    3.6734   -0.5708 C   0  0  0  0  0  0  0  0  0  0  0  0
    6.9845   -2.8210    1.5696 C   0  0  0  0  0  0  0  0  0  0  0  0
   -1.6128    3.0798    0.3773 C   0  0  0  0  0  0  0  0  0  0  0  0
    6.2403   -3.4602    2.5457 C   0  0  0  0  0  0  0  0  0  0  0  0
    0.4625    3.1799   -0.8615 C   0  0  0  0  0  0  0  0  0  0  0  0
    6.4462   -1.8180    0.7816 C   0  0  0  0  0  0  0  0  0  0  0  0
   -1.2216    1.9577    1.0883 C   0  0  0  0  0  0  0  0  0  0  0  0
    4.9150   -3.1418    2.7901 C   0  0  0  0  0  0  0  0  0  0  0  0
    0.8765    2.0506   -0.1529 C   0  0  0  0  0  0  0  0  0  0  0  0
    5.1128   -1.4779    1.0169 C   0  0  0  0  0  0  0  0  0  0  0  0
    2.1158    1.2783   -0.1917 C   0  0  0  0  0  0  0  0  0  0  0  0
    4.2417   -0.4780    0.4051 C   0  0  0  0  0  0  0  0  0  0  0  0
    3.3193    1.3570   -0.9062 C   0  0  0  0  0  0  0  0  0  0  0  0
    4.3808    0.4821   -0.6072 C   0  0  0  0  0  0  0  0  0  0  0  0
    0.0417    1.4369    0.8122 C   0  0  0  0  0  0  0  0  0  0  0  0
    4.3462   -2.1379    2.0076 C   0  0  0  0  0  0  0  0  0  0  0  0
    1.9558    0.2673    0.7675 C   0  0  0  0  0  0  0  0  0  0  0  0
    3.0131   -0.5948    1.0722 C   0  0  0  0  0  0  0  0  0  0  0  0
    3.8029    2.2200   -1.9990 C   0  0  0  0  0  0  0  0  0  0  0  0
    5.4732    0.8423   -1.5290 C   0  0  0  0  0  0  0  0  0  0  0  0
    0.5938   -0.2674    3.6980 C   0  0  0  0  0  0  0  0  0  0  0  0
    1.7554   -1.2278    4.0258 C   0  0  0  0  0  0  0  0  0  0  0  0
    0.1517   -0.6439    2.2696 C   0  0  1  0  0  0  0  0  0  0  0  0
    1.9210   -2.1039    2.7673 C   0  0  2  0  0  0  0  0  0  0  0  0
    0.6897    0.3410    1.3258 N   0  0  0  0  0  0  0  0  0  0  0  0
    3.0739   -1.6219    1.9997 N   0  0  0  0  0  0  0  0  0  0  0  0
    5.0621    1.8608   -2.3050 N   0  0  0  0  0  0  0  0  0  0  0  0
    3.1693    3.1081   -2.5340 O   0  0  0  0  0  0  0  0  0  0  0  0
    6.5634    0.3081   -1.5793 O   0  0  0  0  0  0  0  0  0  0  0  0
    0.7178   -1.9310    2.0171 O   0  0  0  0  0  0  0  0  0  0  0  0
   -1.1550    4.5456   -1.0980 H   0  0  0  0  0  0  0  0  0  0  0  0
    8.0132   -3.1131    1.4182 H   0  0  0  0  0  0  0  0  0  0  0  0
   -2.5865    3.5058    0.5689 H   0  0  0  0  0  0  0  0  0  0  0  0
    6.7090   -4.2330    3.1370 H   0  0  0  0  0  0  0  0  0  0  0  0
    1.0953    3.6462   -1.6022 H   0  0  0  0  0  0  0  0  0  0  0  0
    7.0304   -1.3222    0.0204 H   0  0  0  0  0  0  0  0  0  0  0  0
   -1.8682    1.5049    1.8254 H   0  0  0  0  0  0  0  0  0  0  0  0
    4.3457   -3.6501    3.5544 H   0  0  0  0  0  0  0  0  0  0  0  0
    0.9378    0.7665    3.7274 H   0  0  0  0  0  0  0  0  0  0  0  0
   -0.2277   -0.4138    4.3993 H   0  0  0  0  0  0  0  0  0  0  0  0
    1.5032   -1.8466    4.8870 H   0  0  0  0  0  0  0  0  0  0  0  0
    2.6690   -0.6651    4.2178 H   0  0  0  0  0  0  0  0  0  0  0  0
   -0.9350   -0.6860    2.1950 H   0  0  0  0  0  0  0  0  0  0  0  0
    2.0610   -3.1481    3.0467 H   0  0  0  0  0  0  0  0  0  0  0  0
    5.6003    2.2777   -2.9959 H   0  0  0  0  0  0  0  0  0  0  0  0
  1  3  2  0  0  0  0
  1  5  1  0  0  0  0
  1 31  1  0  0  0  0
  2  4  2  0  0  0  0
  2  6  1  0  0  0  0
  2 32  1  0  0  0  0
  3  7  1  0  0  0  0
  3 33  1  0  0  0  0
  4  8  1  0  0  0  0
  4 34  1  0  0  0  0
  5  9  2  0  0  0  0
  5 35  1  0  0  0  0
  6 10  2  0  0  0  0
  6 36  1  0  0  0  0
  7 15  2  0  0  0  0
  7 37  1  0  0  0  0
  8 16  2  0  0  0  0
  8 38  1  0  0  0  0
  9 11  1  0  0  0  0
  9 15  1  0  0  0  0
 10 12  1  0  0  0  0
 10 16  1  0  0  0  0
 11 13  2  0  0  0  0
 11 17  1  0  0  0  0
 12 14  2  0  0  0  0
 12 18  1  0  0  0  0
 13 14  1  0  0  0  0
 13 19  1  0  0  0  0
 14 20  1  0  0  0  0
 15 25  1  0  0  0  0
 16 26  1  0  0  0  0
 17 18  2  0  0  0  0
 17 25  1  0  0  0  0
 18 26  1  0  0  0  0
 19 27  1  0  0  0  0
 19 28  2  0  0  0  0
 20 27  1  0  0  0  0
 20 29  2  0  0  0  0
 21 22  1  0  0  0  0
 21 23  1  0  0  0  0
 21 39  1  0  0  0  0
 21 40  1  0  0  0  0
 22 24  1  0  0  0  0
 22 41  1  0  0  0  0
 22 42  1  0  0  0  0
 23 25  1  0  0  0  0
 23 30  1  0  0  0  0
 23 43  1  6  0  0  0
 24 26  1  0  0  0  0
 24 30  1  0  0  0  0
 24 44  1  1  0  0  0
 27 45  1  0  0  0  0
M  END
>  <name>
REL-(9R,12S)-9,10,11,12-TETRAHYDRO-9,12-EPOXY-1H-DIINDOLO[1,2,3-FG:3',2',1'-KL]PYRROLO[3,4-I][1,6]BENZODIAZOCINE-1,3(2H)-DIONE

>  <score>
1.201

>  <target>


$$$$
