@<TRIPOS>MOLECULE
DB03865
 43 46 0 0 0
SMALL
USER_CHARGES

@<TRIPOS>ATOM
      1 C          -1.3162    2.7700    0.4510 C.ar    1  LIG1        0.0000
      2 C          -1.1384    1.4033    0.3322 C.ar    1  LIG1        0.0000
      3 C          -0.2320    3.6242    0.3604 C.ar    1  LIG1        0.0000
      4 C           4.6529    1.2025   -1.4111 C.ar    1  LIG1        0.0000
      5 C           0.1233    0.8846    0.1229 C.ar    1  LIG1        0.0000
      6 C           1.0351    3.1160    0.1576 C.ar    1  LIG1        0.0000
      7 C           3.3872    1.7136   -1.1995 C.ar    1  LIG1        0.0000
      8 C           5.1286    0.1685   -0.6292 C.ar    1  LIG1        0.0000
      9 C           6.5650   -4.5634    2.0953 C.ar    1  LIG1        0.0000
     10 C           5.5790   -2.5210    0.7681 C.ar    1  LIG1        0.0000
     11 C           5.3556   -3.3302    4.2932 C.ar    1  LIG1        0.0000
     12 C           5.8649   -3.3696    1.9251 C.ar    1  LIG1        0.0000
     13 C           1.2193    1.7404    0.0314 C.ar    1  LIG1        0.0000
     14 C           2.5778    1.1888   -0.1935 C.ar    1  LIG1        0.0000
     15 C           4.3323   -0.3687    0.3827 C.ar    1  LIG1        0.0000
     16 C           6.6532   -5.1288    3.3630 C.ar    1  LIG1        0.0000
     17 C           5.2542   -2.7466    3.0326 C.ar    1  LIG1        0.0000
     18 C           3.0472    0.1398    0.5991 C.ar    1  LIG1        0.0000
     19 C           6.0416   -4.4991    4.4569 C.ar    1  LIG1        0.0000
     20 C           4.8425   -1.4757    1.2191 C.ar    1  LIG1        0.0000
     21 C           7.3967   -6.3904    3.5585 C.2     1  LIG1        0.0000
     22 N           4.6431   -1.6027    2.5750 N.ar    1  LIG1        0.0000
     23 N           7.0668   -7.4738    2.8565 N.pl3   1  LIG1        0.0000
     24 N           8.3973   -6.4449    4.4368 N.2     1  LIG1        0.0000
     25 O           2.2647   -0.3771    1.5809 O.3     1  LIG1        0.0000
     26 CL          6.1579   -5.2133    6.0349 Cl      1  LIG1        0.0000
     27 H          -2.3053    3.1715    0.6146 H       1  LIG1        0.0000
     28 H          -1.9886    0.7410    0.4029 H       1  LIG1        0.0000
     29 H          -0.3767    4.6904    0.4533 H       1  LIG1        0.0000
     30 H           5.2744    1.6143   -2.1926 H       1  LIG1        0.0000
     31 H           0.2609   -0.1825    0.0300 H       1  LIG1        0.0000
     32 H           1.8810    3.7839    0.0875 H       1  LIG1        0.0000
     33 H           3.0238    2.5229   -1.8154 H       1  LIG1        0.0000
     34 H           6.1195   -0.2251   -0.8011 H       1  LIG1        0.0000
     35 H           7.0349   -5.0446    1.2503 H       1  LIG1        0.0000
     36 H           5.8944   -2.6939   -0.2502 H       1  LIG1        0.0000
     37 H           4.8894   -2.8565    5.1443 H       1  LIG1        0.0000
     38 H           4.1453   -0.9785    3.1258 H       1  LIG1        0.0000
     39 H           7.6039   -8.2786    2.9255 H       1  LIG1        0.0000
     40 H           6.2895   -7.4576    2.2764 H       1  LIG1        0.0000
     41 H           8.6374   -5.6562    4.9479 H       1  LIG1        0.0000
     42 H           8.8854   -7.2731    4.5651 H       1  LIG1        0.0000
     43 H           1.7532   -1.0944    1.1820 H       1  LIG1        0.0000
@<TRIPOS>BOND
     1     1     2   ar
     2     1     3   ar
     3     2     5   ar
     4     3     6   ar
     5     4     7   ar
     6     4     8   ar
     7     5    13   ar
     8     6    13   ar
     9     7    14   ar
    10     8    15   ar
    11     9    12   ar
    12     9    16   ar
    13    10    12   ar
    14    10    20   ar
    15    11    17   ar
    16    11    19   ar
    17    12    17   ar
    18    13    14    1
    19    14    18   ar
    20    15    18   ar
    21    15    20    1
    22    16    19   ar
    23    16    21    1
    24    17    22   ar
    25    18    25    1
    26    19    26    1
    27    20    22   ar
    28    21    23    1
    29    21    24    2
    30     1    27    1
    31     2    28    1
    32     3    29    1
    33     4    30    1
    34     5    31    1
    35     6    32    1
    36     7    33    1
    37     8    34    1
    38     9    35    1
    39    10    36    1
    40    11    37    1
    41    22    38    1
    42    23    39    1
    43    23    40    1
    44    24    41    1
    45    24    42    1
    46    25    43    1
