@<TRIPOS>MOLECULE
DB04669
 38 41 0 0 0
SMALL
USER_CHARGES

@<TRIPOS>ATOM
      1 C           6.1037   -3.2978    1.1166 C.ar    1  LIG1       -0.0605
      2 C           5.9059   -2.2201    0.2533 C.ar    1  LIG1       -0.0527
      3 C           5.6558   -3.2261    2.4357 C.ar    1  LIG1       -0.0479
      4 C          -0.3863    3.5072   -0.5128 C.ar    1  LIG1       -0.0390
      5 C          -0.0559    1.4667    0.7169 C.ar    1  LIG1       -0.0390
      6 C           4.8125   -0.9990    2.0284 C.ar    1  LIG1       -0.0385
      7 C           3.9365    0.8672    0.0105 C.3     1  LIG1        0.0046
      8 C          -1.7069    3.1254   -0.6864 C.ar    1  LIG1        0.0271
      9 C          -1.3913    1.1764    0.4883 C.ar    1  LIG1        0.0271
     10 C           6.0945    2.6387   -3.6038 C.2     1  LIG1        0.1026
     11 C           5.2604   -1.0707    0.7093 C.ar    1  LIG1        0.0015
     12 C           0.4483    2.6565    0.2034 C.ar    1  LIG1       -0.0278
     13 C           5.0103   -2.0767    2.8916 C.ar    1  LIG1        0.0182
     14 C           5.0550    0.0486   -0.1875 C.3     1  LIG1        0.0778
     15 C           3.7425    1.9346   -0.8476 C.3     1  LIG1        0.1213
     16 C           5.8518    1.1866   -1.9886 C.3     1  LIG1        0.2502
     17 C           1.8886    3.0207    0.4208 C.3     1  LIG1        0.0351
     18 N          -2.2327    1.9777   -0.2026 N.ar    1  LIG1       -0.2646
     19 N           6.6710    1.5537   -3.0664 N.2     1  LIG1       -0.2027
     20 N           6.0287    0.1464   -1.1416 N.3     1  LIG1       -0.2110
     21 N           4.9443    2.9831   -2.9197 N.pl3   1  LIG1       -0.2392
     22 N           4.7795    2.0451   -1.8696 N.3     1  LIG1       -0.2135
     23 N           2.6791    2.8273   -0.7682 N.3     1  LIG1       -0.3252
     24 BR          4.4051   -1.9796    4.6796 Br      1  LIG1       -0.0508
     25 H           6.6064   -4.1927    0.7618 H       1  LIG1        0.0623
     26 H           6.2595   -2.2918   -0.7724 H       1  LIG1        0.0630
     27 H           5.8179   -4.0749    3.0954 H       1  LIG1        0.0634
     28 H          -0.0234    4.4418   -0.9270 H       1  LIG1        0.0642
     29 H           0.5700    0.7829    1.2797 H       1  LIG1        0.0642
     30 H           4.3090   -0.1016    2.3831 H       1  LIG1        0.0641
     31 H           3.2351    0.6732    0.8170 H       1  LIG1        0.0682
     32 H          -2.3985    3.7532   -1.2386 H       1  LIG1        0.0839
     33 H          -1.8330    0.2608    0.8678 H       1  LIG1        0.0839
     34 H           6.4521    3.1965   -4.4565 H       1  LIG1        0.1029
     35 H           1.9804    4.0705    0.7200 H       1  LIG1        0.0517
     36 H           2.3308    2.4152    1.2190 H       1  LIG1        0.0517
     37 H           4.3052    3.7482   -3.0932 H       1  LIG1        0.1751
     38 H           2.4509    3.3673   -1.5928 H       1  LIG1        0.1483
@<TRIPOS>BOND
     1     1     2   ar
     2     1     3   ar
     3     2    11   ar
     4     3    13   ar
     5     4     8   ar
     6     4    12   ar
     7     5     9   ar
     8     5    12   ar
     9     6    11   ar
    10     6    13   ar
    11     7    14    1
    12     7    15    1
    13     8    18   ar
    14     9    18   ar
    15    10    19    2
    16    10    21    1
    17    11    14    1
    18    12    17    1
    19    13    24    1
    20    14    20    1
    21    15    22    1
    22    15    23    1
    23    16    19    1
    24    16    20    1
    25    16    22    1
    26    17    23    1
    27    21    22    1
    28     1    25    1
    29     2    26    1
    30     3    27    1
    31     4    28    1
    32     5    29    1
    33     6    30    1
    34     7    31    1
    35     8    32    1
    36     9    33    1
    37    10    34    1
    38    17    35    1
    39    17    36    1
    40    21    37    1
    41    23    38    1
