@<TRIPOS>MOLECULE
DB07607
 43 46 0 0 0
SMALL
USER_CHARGES

@<TRIPOS>ATOM
      1 C          -1.0884    1.6869    0.1360 C.ar    1  LIG1       -0.0605
      2 C           0.0974    0.9828    0.1541 C.ar    1  LIG1       -0.0529
      3 C           4.3777   -2.2825    2.3413 C.ar    1  LIG1       -0.0497
      4 C           6.2386   -1.8960    0.8531 C.ar    1  LIG1       -0.0497
      5 C           5.0914   -3.2874    2.9613 C.ar    1  LIG1       -0.0403
      6 C           6.9438   -2.8988    1.4856 C.ar    1  LIG1       -0.0403
      7 C          -1.0770    3.0648    0.0082 C.ar    1  LIG1       -0.0488
      8 C           2.6519    2.4386   -2.6145 C.ar    1  LIG1       -0.0343
      9 C           4.9904    2.7187   -2.1478 C.ar    1  LIG1       -0.0343
     10 C           1.3173    3.0555   -0.0722 C.ar    1  LIG1       -0.0396
     11 C           2.7897    3.3667   -3.6250 C.ar    1  LIG1        0.0274
     12 C           5.0397    3.6319   -3.1799 C.ar    1  LIG1        0.0274
     13 C           4.9495   -1.5763    1.2819 C.ar    1  LIG1        0.0151
     14 C           1.3127    1.6649    0.0561 C.ar    1  LIG1       -0.0009
     15 C           3.7733    2.0951   -1.8513 C.ar    1  LIG1        0.0052
     16 C           6.3711   -3.5955    2.5349 C.ar    1  LIG1        0.0382
     17 C           0.1230    3.7468   -0.0956 C.ar    1  LIG1        0.0137
     18 C           3.6736    1.1035   -0.7562 C.ar    1  LIG1        0.0945
     19 C           2.5860    0.9185    0.0821 C.ar    1  LIG1        0.0656
     20 C           4.1904   -0.4982    0.6128 C.ar    1  LIG1        0.1298
     21 C           6.7671   -6.2978    2.3213 C.3     1  LIG1        0.0123
     22 N           3.9578    3.9275   -3.8754 N.ar    1  LIG1       -0.2646
     23 N           4.6214    0.2226   -0.3965 N.ar    1  LIG1       -0.2302
     24 N           2.9273   -0.0974    0.9424 N.ar    1  LIG1       -0.2968
     25 O           6.5979   -4.9212    4.5806 O.2     1  LIG1       -0.4917
     26 S           7.2757   -4.8802    3.3324 S.O     1  LIG1       -0.2385
     27 I           0.1264    5.8329   -0.2881 I       1  LIG1       -0.0443
     28 H          -2.0283    1.1611    0.2170 H       1  LIG1        0.0623
     29 H           0.0868   -0.0925    0.2537 H       1  LIG1        0.0629
     30 H           3.3790   -2.0427    2.6752 H       1  LIG1        0.0631
     31 H           6.6866   -1.3533    0.0338 H       1  LIG1        0.0631
     32 H           4.6504   -3.8344    3.7814 H       1  LIG1        0.0642
     33 H           7.9434   -3.1438    1.1582 H       1  LIG1        0.0642
     34 H          -2.0088    3.6106   -0.0104 H       1  LIG1        0.0634
     35 H           1.6930    1.9833   -2.4154 H       1  LIG1        0.0646
     36 H           5.8797    2.4816   -1.5829 H       1  LIG1        0.0646
     37 H           2.2530    3.5887   -0.1526 H       1  LIG1        0.0641
     38 H           1.9300    3.6381   -4.2198 H       1  LIG1        0.0840
     39 H           5.9753    4.1153   -3.4193 H       1  LIG1        0.0840
     40 H           7.0588   -6.1282    1.2848 H       1  LIG1        0.0432
     41 H           7.2518   -7.2010    2.6920 H       1  LIG1        0.0432
     42 H           5.6851   -6.4161    2.3795 H       1  LIG1        0.0432
     43 H           2.3743   -0.4619    1.6511 H       1  LIG1        0.1544
@<TRIPOS>BOND
     1     1     2   ar
     2     1     7   ar
     3     2    14   ar
     4     3     5   ar
     5     3    13   ar
     6     4     6   ar
     7     4    13   ar
     8     5    16   ar
     9     6    16   ar
    10     7    17   ar
    11     8    11   ar
    12     8    15   ar
    13     9    12   ar
    14     9    15   ar
    15    10    14   ar
    16    10    17   ar
    17    11    22   ar
    18    12    22   ar
    19    13    20    1
    20    14    19    1
    21    15    18    1
    22    16    26    1
    23    17    27    1
    24    18    19   ar
    25    18    23   ar
    26    19    24   ar
    27    20    23   ar
    28    20    24   ar
    29    21    26    1
    30    25    26    2
    31     1    28    1
    32     2    29    1
    33     3    30    1
    34     4    31    1
    35     5    32    1
    36     6    33    1
    37     7    34    1
    38     8    35    1
    39     9    36    1
    40    10    37    1
    41    11    38    1
    42    12    39    1
    43    21    40    1
    44    21    41    1
    45    21    42    1
    46    24    43    1
