@<TRIPOS>MOLECULE
DB07300
 46 49 0 0 0
SMALL
USER_CHARGES

@<TRIPOS>ATOM
      1 C           0.7074    1.3926    0.6993 C.ar    1  LIG1       -0.0190
      2 C           3.4039    0.2067    0.3385 C.ar    1  LIG1       -0.0122
      3 C          -0.0493    3.4695   -1.0161 C.ar    1  LIG1       -0.0027
      4 C           6.4968   -2.8214    1.7515 C.ar    1  LIG1        0.0429
      5 C           3.2603    2.8159   -2.2808 C.ar    1  LIG1        0.0389
      6 C           6.4447   -1.8408    0.8307 C.ar    1  LIG1        0.0219
      7 C           4.5000   -2.0035    1.8373 C.ar    1  LIG1        0.0921
      8 C           1.5920    1.8366   -0.2833 C.ar    1  LIG1        0.0111
      9 C           2.9197    1.2455   -0.4535 C.ar    1  LIG1       -0.0004
     10 C           3.7472    1.7668   -1.4804 C.ar    1  LIG1        0.0408
     11 C           1.2188    2.8886   -1.1536 C.ar    1  LIG1        0.0736
     12 C          -0.5333    1.9820    0.8208 C.ar    1  LIG1        0.1056
     13 C          -0.9082    3.0226   -0.0367 C.ar    1  LIG1        0.1075
     14 C           4.6774   -0.2773    0.0912 C.ar    1  LIG1        0.1319
     15 C           5.0283    1.2110   -1.6591 C.ar    1  LIG1        0.1265
     16 C          -0.7380    0.4958    2.4830 C.3     1  LIG1        0.0424
     17 C          -4.9817    6.6019    0.4567 C.3     1  LIG1        0.0356
     18 C          -2.2282    4.6062   -0.9095 C.3     1  LIG1        0.0768
     19 C          -3.5924    5.2925   -0.8160 C.3     1  LIG1        0.0702
     20 N           5.2976   -2.9014    2.3474 N.ar    1  LIG1       -0.2473
     21 N           2.0697    3.3192   -2.1012 N.ar    1  LIG1       -0.2553
     22 N           5.4350    0.2267   -0.8760 N.ar    1  LIG1       -0.2171
     23 N           5.1768   -1.3191    0.8774 N.ar    1  LIG1       -0.2499
     24 N           5.8617    1.6963   -2.6510 N.pl3   1  LIG1       -0.3426
     25 O          -1.3964    1.5504    1.7786 O.3     1  LIG1       -0.3465
     26 O          -2.1344    3.5939    0.0947 O.3     1  LIG1       -0.3408
     27 O          -3.6927    5.9853    0.4297 O.3     1  LIG1       -0.3822
     28 H           0.9933    0.5901    1.3631 H       1  LIG1        0.0658
     29 H           2.7986   -0.2121    1.1289 H       1  LIG1        0.0666
     30 H          -0.3497    4.2729   -1.6724 H       1  LIG1        0.0674
     31 H           7.3557   -3.4378    1.9721 H       1  LIG1        0.0854
     32 H           3.8874    3.2149   -3.0643 H       1  LIG1        0.0848
     33 H           7.2469   -1.5256    0.1799 H       1  LIG1        0.0813
     34 H           3.4722   -1.8372    2.1242 H       1  LIG1        0.1020
     35 H           0.1794    0.8763    2.9321 H       1  LIG1        0.0535
     36 H          -1.3951    0.1159    3.2654 H       1  LIG1        0.0535
     37 H          -0.4962   -0.3091    1.7890 H       1  LIG1        0.0535
     38 H          -5.1049    7.1453    1.3935 H       1  LIG1        0.0529
     39 H          -5.0705    7.2951   -0.3798 H       1  LIG1        0.0529
     40 H          -5.7527    5.8356    0.3770 H       1  LIG1        0.0529
     41 H          -2.1163    4.1526   -1.8943 H       1  LIG1        0.0596
     42 H          -1.4396    5.3431   -0.7573 H       1  LIG1        0.0596
     43 H          -4.3812    4.5429   -0.8795 H       1  LIG1        0.0591
     44 H          -3.6990    6.0024   -1.6363 H       1  LIG1        0.0591
     45 H           6.7451    1.3143   -2.7722 H       1  LIG1        0.1442
     46 H           5.5627    2.4185   -3.2253 H       1  LIG1        0.1442
@<TRIPOS>BOND
     1     1     8   ar
     2     1    12   ar
     3     2     9   ar
     4     2    14   ar
     5     3    11   ar
     6     3    13   ar
     7     4     6   ar
     8     4    20   ar
     9     5    10   ar
    10     5    21   ar
    11     6    23   ar
    12     7    20   ar
    13     7    23   ar
    14     8     9   ar
    15     8    11   ar
    16     9    10   ar
    17    10    15   ar
    18    11    21   ar
    19    12    13   ar
    20    12    25    1
    21    13    26    1
    22    14    22   ar
    23    14    23    1
    24    15    22   ar
    25    15    24    1
    26    16    25    1
    27    17    27    1
    28    18    19    1
    29    18    26    1
    30    19    27    1
    31     1    28    1
    32     2    29    1
    33     3    30    1
    34     4    31    1
    35     5    32    1
    36     6    33    1
    37     7    34    1
    38    16    35    1
    39    16    36    1
    40    16    37    1
    41    17    38    1
    42    17    39    1
    43    17    40    1
    44    18    41    1
    45    18    42    1
    46    19    43    1
    47    19    44    1
    48    24    45    1
    49    24    46    1
