@<TRIPOS>MOLECULE
DB08615
 36 38 0 0 0
SMALL
USER_CHARGES

@<TRIPOS>ATOM
      1 C           5.7409   -2.5668    0.4478 C.ar    1  LIG1       -0.0507
      2 C           4.9897   -1.3118    2.3725 C.ar    1  LIG1       -0.0507
      3 C           2.1512    2.1111   -0.8832 C.ar    1  LIG1       -0.0367
      4 C           6.1435   -3.5907    1.2766 C.ar    1  LIG1       -0.0403
      5 C           5.3943   -2.3390    3.1961 C.ar    1  LIG1       -0.0403
      6 C           2.0429    3.0823   -1.8284 C.ar    1  LIG1       -0.0265
      7 C           4.2451    2.6058   -2.6482 C.ar    1  LIG1       -0.0125
      8 C           5.1603   -1.4184    0.9904 C.ar    1  LIG1        0.0031
      9 C           3.3267    1.3308   -0.7741 C.ar    1  LIG1        0.0474
     10 C           5.9723   -3.4816    2.6527 C.ar    1  LIG1        0.0281
     11 C           3.0758    3.3489   -2.7226 C.ar    1  LIG1        0.1148
     12 C           4.3600    1.6238   -1.6958 C.ar    1  LIG1        0.0378
     13 C           4.7277   -0.3182    0.1042 C.ar    1  LIG1        0.0790
     14 C           2.5654   -0.0201    1.0858 C.3     1  LIG1        0.0058
     15 C           6.3048   -4.3623    4.9429 C.3     1  LIG1       -0.0003
     16 C           6.8702   -5.7746    2.9121 C.3     1  LIG1       -0.0003
     17 N           3.5888    0.3392    0.1011 N.ar    1  LIG1       -0.2969
     18 N           6.3755   -4.5218    3.4884 N.pl3   1  LIG1       -0.3369
     19 O           2.9408    4.3265   -3.6576 O.3     1  LIG1       -0.1926
     20 S           5.6223    0.4632   -1.2313 S.2     1  LIG1       -0.0717
     21 H           5.8744   -2.6518   -0.6205 H       1  LIG1        0.0630
     22 H           4.5409   -0.4249    2.7950 H       1  LIG1        0.0630
     23 H           1.3288    1.9325   -0.2064 H       1  LIG1        0.0644
     24 H           6.5930   -4.4788    0.8576 H       1  LIG1        0.0642
     25 H           5.2626   -2.2572    4.2649 H       1  LIG1        0.0642
     26 H           1.1332    3.6615   -1.8866 H       1  LIG1        0.0652
     27 H           5.0576    2.7983   -3.3332 H       1  LIG1        0.0664
     28 H           2.6591    0.6254    1.9591 H       1  LIG1        0.0436
     29 H           1.5767    0.1065    0.6449 H       1  LIG1        0.0436
     30 H           2.6990   -1.0593    1.3861 H       1  LIG1        0.0436
     31 H           5.9935   -3.3455    5.1822 H       1  LIG1        0.0432
     32 H           5.5822   -5.0690    5.3512 H       1  LIG1        0.0432
     33 H           7.2857   -4.5539    5.3777 H       1  LIG1        0.0432
     34 H           6.9348   -5.6755    1.8285 H       1  LIG1        0.0432
     35 H           7.8582   -5.9953    3.3163 H       1  LIG1        0.0432
     36 H           6.1857   -6.5851    3.1627 H       1  LIG1        0.0432
@<TRIPOS>BOND
     1     1     4   ar
     2     1     8   ar
     3     2     5   ar
     4     2     8   ar
     5     3     6   ar
     6     3     9   ar
     7     4    10   ar
     8     5    10   ar
     9     6    11   ar
    10     7    11   ar
    11     7    12   ar
    12     8    13    1
    13     9    12   ar
    14     9    17   ar
    15    10    18    1
    16    11    19    1
    17    12    20   ar
    18    13    17   ar
    19    13    20   ar
    20    14    17    1
    21    15    18    1
    22    16    18    1
    23     1    21    1
    24     2    22    1
    25     3    23    1
    26     4    24    1
    27     5    25    1
    28     6    26    1
    29     7    27    1
    30    14    28    1
    31    14    29    1
    32    14    30    1
    33    15    31    1
    34    15    32    1
    35    15    33    1
    36    16    34    1
    37    16    35    1
    38    16    36    1
