@<TRIPOS>MOLECULE
ZINC02503793
   31    34     0     0     0
SMALL
USER_CHARGES
8-(1H-benzoimidazol-2-ylmethylsulfanyl)-5,7,9-triazabicyclo[4.3.0]nona-1,3,6,8-tetraene
@<TRIPOS>ATOM
      1 C1         -1.2138    1.7520    0.0173 C.ar      1 <0>        -0.0962
      2 C2         -1.2398    3.1395    0.0306 C.ar      1 <0>        -0.1279
      3 C3         -0.0782    3.8582    0.0230 C.ar      1 <0>        -0.0594
      4 C4          1.1513    3.1943    0.0077 C.ar      1 <0>         0.0444
      5 C5          1.1783    1.7895    0.0004 C.ar      1 <0>         0.0553
      6 C6         -0.0126    1.0758    0.0080 C.ar      1 <0>        -0.1130
      7 N1          2.5122    1.4340   -0.0138 N.pl3     1 <0>        -0.5932
      8 H1          2.8775    0.5031   -0.0219 H         1 <0>         0.4313
      9 C7          3.2376    2.5848   -0.0148 C.2       1 <0>         0.2927
     10 N2          2.4425    3.6146   -0.0022 N.2       1 <0>        -0.4678
     11 C8          4.7428    2.6565   -0.0290 C.3       1 <0>        -0.0367
     12 S1          5.3303    2.6942   -1.7448 S.3       1 <0>         0.0395
     13 C9          7.0838    2.7767   -1.5933 C.2       1 <0>         0.2426
     14 N3          7.7441    2.8073   -0.4480 N.2       1 <0>        -0.5288
     15 C10         9.0618    2.8666   -0.7252 C.2       1 <0>        -0.0014
     16 C11        10.2190    2.9177    0.0468 C.2       1 <0>         0.0500
     17 C12        11.4523    2.9802   -0.5959 C.2       1 <0>        -0.2008
     18 C13        11.5207    2.9909   -1.9542 C.2       1 <0>         0.1497
     19 N4         10.4121    2.9420   -2.7148 N.pl3     1 <0>        -0.4805
     20 H2         10.4921    2.9511   -3.6814 H         1 <0>         0.4288
     21 C14         9.1751    2.8797   -2.1395 C.2       1 <0>         0.2396
     22 N5          7.9369    2.8231   -2.6166 N.2       1 <0>        -0.5351
     23 H3         -2.1410    1.1982    0.0190 H         1 <0>         0.1320
     24 H4         -2.1880    3.6563    0.0424 H         1 <0>         0.1314
     25 H5         -0.1099    4.9378    0.0290 H         1 <0>         0.1313
     26 H6          0.0021   -0.0041    0.0020 H         1 <0>         0.1248
     27 H7          5.0684    3.5600    0.4865 H         1 <0>         0.1298
     28 H8          5.1530    1.7821    0.4764 H         1 <0>         0.1140
     29 H9         10.1611    2.9088    1.1252 H         1 <0>         0.1495
     30 H10        12.3602    3.0208   -0.0124 H         1 <0>         0.1654
     31 H11        12.4874    3.0397   -2.4333 H         1 <0>         0.1888
@<TRIPOS>BOND
     1    1    6 ar
     2    1    2 ar
     3    1   23 1
     4    2    3 ar
     5    2   24 1
     6    3    4 ar
     7    3   25 1
     8    4   10 1
     9    4    5 ar
    10    5    6 ar
    11    5    7 1
    12    6   26 1
    13    7    8 1
    14    7    9 1
    15    9   10 2
    16    9   11 1
    17   11   12 1
    18   11   27 1
    19   11   28 1
    20   12   13 1
    21   13   22 1
    22   13   14 2
    23   14   15 1
    24   15   21 1
    25   15   16 2
    26   16   17 1
    27   16   29 1
    28   17   18 2
    29   17   30 1
    30   18   19 1
    31   18   31 1
    32   19   20 1
    33   19   21 1
    34   21   22 2