@<TRIPOS>MOLECULE
ZINC01719019
   40    42     0     0     0
SMALL
USER_CHARGES
1,1,3-triphenylprop-2-en-1-ol
@<TRIPOS>ATOM
      1 C1          1.3900    4.6782    6.3885 C.ar      1 <0>        -0.1184
      2 C2          2.7082    4.3178    6.1731 C.ar      1 <0>        -0.1189
      3 C3          3.1673    4.1047    4.8896 C.ar      1 <0>        -0.1069
      4 C4          2.2988    4.2530    3.8076 C.ar      1 <0>        -0.0577
      5 C5          0.9718    4.6218    4.0313 C.ar      1 <0>        -0.1136
      6 C6          0.5237    4.8264    5.3201 C.ar      1 <0>        -0.1183
      7 C7          2.7839    4.0262    2.4299 C.2       1 <0>        -0.0998
      8 C8          1.9564    4.1678    1.4040 C.2       1 <0>        -0.1700
      9 C9          2.4510    3.9366   -0.0006 C.3       1 <0>         0.2551
     10 C10         1.6589    2.8225   -0.6351 C.ar      1 <0>        -0.0674
     11 C11         2.3097    1.8220   -1.3324 C.ar      1 <0>        -0.0913
     12 C12         1.5832    0.8001   -1.9143 C.ar      1 <0>        -0.1223
     13 C13         0.2054    0.7816   -1.8036 C.ar      1 <0>        -0.1171
     14 C14        -0.4450    1.7793   -1.1018 C.ar      1 <0>        -0.1204
     15 C15         0.2816    2.8010   -0.5194 C.ar      1 <0>        -0.1083
     16 C16         2.2794    5.1977   -0.8076 C.ar      1 <0>        -0.1057
     17 C17         1.0696    5.8664   -0.7961 C.ar      1 <0>        -0.1053
     18 C18         0.9137    7.0258   -1.5325 C.ar      1 <0>        -0.1184
     19 C19         1.9643    7.5108   -2.2887 C.ar      1 <0>        -0.1173
     20 C20         3.1725    6.8393   -2.3043 C.ar      1 <0>        -0.1177
     21 C21         3.3300    5.6827   -1.5638 C.ar      1 <0>        -0.1075
     22 O1          3.8338    3.5779    0.0343 O.3       1 <0>        -0.5445
     23 H1          1.0357    4.8442    7.3951 H         1 <0>         0.1229
     24 H2          3.3794    4.2033    7.0114 H         1 <0>         0.1244
     25 H3          4.1966    3.8233    4.7227 H         1 <0>         0.1247
     26 H4          0.2958    4.7426    3.1977 H         1 <0>         0.1220
     27 H5         -0.5042    5.1077    5.4949 H         1 <0>         0.1237
     28 H6          3.8126    3.7450    2.2590 H         1 <0>         0.1269
     29 H7          0.9277    4.4490    1.5748 H         1 <0>         0.1235
     30 H8          3.3858    1.8388   -1.4227 H         1 <0>         0.1315
     31 H9          2.0916    0.0185   -2.4594 H         1 <0>         0.1235
     32 H10        -0.3626   -0.0144   -2.2620 H         1 <0>         0.1225
     33 H11        -1.5211    1.7626   -1.0117 H         1 <0>         0.1240
     34 H12        -0.2269    3.5825    0.0257 H         1 <0>         0.1196
     35 H13         0.2474    5.4850   -0.2088 H         1 <0>         0.1203
     36 H14        -0.0303    7.5503   -1.5206 H         1 <0>         0.1238
     37 H15         1.8412    8.4142   -2.8676 H         1 <0>         0.1229
     38 H16         3.9932    7.2180   -2.8954 H         1 <0>         0.1240
     39 H17         4.2738    5.1579   -1.5763 H         1 <0>         0.1293
     40 H18         4.4046    4.2502    0.4308 H         1 <0>         0.3822
@<TRIPOS>BOND
     1    1    6 ar
     2    1    2 ar
     3    1   23 1
     4    2    3 ar
     5    2   24 1
     6    3    4 ar
     7    3   25 1
     8    4    5 ar
     9    4    7 1
    10    5    6 ar
    11    5   26 1
    12    6   27 1
    13    7    8 2
    14    7   28 1
    15    8    9 1
    16    8   29 1
    17    9   10 1
    18    9   16 1
    19    9   22 1
    20   10   15 ar
    21   10   11 ar
    22   11   12 ar
    23   11   30 1
    24   12   13 ar
    25   12   31 1
    26   13   14 ar
    27   13   32 1
    28   14   15 ar
    29   14   33 1
    30   15   34 1
    31   16   21 ar
    32   16   17 ar
    33   17   18 ar
    34   17   35 1
    35   18   19 ar
    36   18   36 1
    37   19   20 ar
    38   19   37 1
    39   20   21 ar
    40   20   38 1
    41   21   39 1
    42   22   40 1